  
       XFOIL         Version 6.99
  
 Calculated polar for: SD8040 (10%)                                    
  
 1 1 Reynolds number fixed          Mach number fixed         
  
 xtrf =   1.000 (top)        1.000 (bottom)  
 Mach =   0.000     Re =     0.050 e 6     Ncrit =   9.000
  
   alpha    CL        CD       CDp       CM     Top_Xtr  Bot_Xtr
  ------ -------- --------- --------- -------- -------- --------
   0.000   0.0077   0.02187   0.01272  -0.0255   1.0000   1.0000
   0.250   0.0255   0.02253   0.01320  -0.0254   1.0000   1.0000
   0.500   0.0817   0.02395   0.01438  -0.0323   0.9833   1.0000
   0.750   0.1335   0.02514   0.01539  -0.0381   0.9642   1.0000
   1.000   0.1877   0.02631   0.01640  -0.0440   0.9456   1.0000
   1.250   0.2326   0.02720   0.01719  -0.0481   0.9253   1.0000
   1.500   0.2773   0.02799   0.01791  -0.0518   0.9049   1.0000
   1.750   0.3248   0.02868   0.01855  -0.0557   0.8851   1.0000
   2.000   0.3754   0.02922   0.01907  -0.0597   0.8661   1.0000
   2.250   0.4095   0.02970   0.01955  -0.0609   0.8443   1.0000
   2.500   0.4526   0.03000   0.01987  -0.0632   0.8237   1.0000
   2.750   0.5036   0.02998   0.01991  -0.0662   0.8046   1.0000
   3.000   0.5520   0.02975   0.01974  -0.0683   0.7859   1.0000
   3.250   0.5813   0.02993   0.01996  -0.0678   0.7633   1.0000
   3.500   0.6228   0.02953   0.01965  -0.0682   0.7435   1.0000
   3.750   0.6663   0.02886   0.01904  -0.0684   0.7246   1.0000
   4.000   0.6950   0.02883   0.01908  -0.0672   0.7017   1.0000
   4.250   0.7302   0.02838   0.01868  -0.0663   0.6800   1.0000
   4.500   0.7666   0.02780   0.01811  -0.0652   0.6587   1.0000
   4.750   0.7919   0.02793   0.01830  -0.0635   0.6335   1.0000
   5.000   0.8236   0.02765   0.01800  -0.0621   0.6101   1.0000
   5.250   0.8493   0.02782   0.01817  -0.0604   0.5843   1.0000
   5.500   0.8747   0.02808   0.01841  -0.0587   0.5586   1.0000
   5.750   0.9035   0.02814   0.01840  -0.0572   0.5335   1.0000
   6.000   0.9248   0.02880   0.01908  -0.0555   0.5066   1.0000
   6.250   0.9492   0.02931   0.01954  -0.0539   0.4811   1.0000
   6.500   0.9737   0.02986   0.02004  -0.0524   0.4558   1.0000
   6.750   0.9942   0.03075   0.02096  -0.0508   0.4302   1.0000
   7.000   1.0206   0.03135   0.02139  -0.0495   0.4066   1.0000
   7.250   1.0379   0.03257   0.02276  -0.0478   0.3823   1.0000
   7.500   1.0630   0.03339   0.02343  -0.0467   0.3599   1.0000
   7.750   1.0796   0.03483   0.02502  -0.0450   0.3380   1.0000
   8.000   1.0998   0.03607   0.02627  -0.0436   0.3172   1.0000
   8.250   1.1237   0.03721   0.02729  -0.0425   0.2976   1.0000
   8.500   1.1386   0.03894   0.02920  -0.0408   0.2793   1.0000
   8.750   1.1543   0.04076   0.03117  -0.0392   0.2624   1.0000
   9.000   1.1696   0.04260   0.03313  -0.0376   0.2462   1.0000
   9.250   1.1846   0.04463   0.03530  -0.0360   0.2319   1.0000
   9.500   1.1995   0.04667   0.03743  -0.0345   0.2182   1.0000
   9.750   1.2171   0.04872   0.03950  -0.0333   0.2054   1.0000
  10.000   1.2166   0.05183   0.04305  -0.0309   0.1962   1.0000
  10.250   1.2210   0.05504   0.04648  -0.0290   0.1882   1.0000
  10.500   1.2442   0.05697   0.04831  -0.0283   0.1770   1.0000
  10.750   1.2209   0.06177   0.05368  -0.0252   0.1748   1.0000
  11.000   1.1934   0.06691   0.05919  -0.0227   0.1736   1.0000
  11.250   1.1593   0.07227   0.06476  -0.0205   0.1739   1.0000
  11.500   1.1208   0.07879   0.07142  -0.0203   0.1753   1.0000
  11.750   1.0835   0.08677   0.07947  -0.0224   0.1767   1.0000
  11.750   1.0835   0.08677   0.07947  -0.0224   0.1767   1.0000
  11.850   1.0691   0.09042   0.08312  -0.0238   0.1771   1.0000
  12.750   0.8164   0.15875   0.15086  -0.0740   0.3165   1.0000
  13.000   0.8240   0.16345   0.15560  -0.0750   0.3106   1.0000
  13.000   0.8240   0.16345   0.15560  -0.0750   0.3106   1.0000
  13.100   0.8184   0.16408   0.15621  -0.0758   0.3063   1.0000
  13.200   0.8248   0.16567   0.15784  -0.0758   0.3013   1.0000
  13.500   0.8277   0.17012   0.16230  -0.0773   0.2913   1.0000
  13.750   0.8633   0.17786   0.17018  -0.0765   0.2819   1.0000
  14.000   0.8392   0.17777   0.17001  -0.0797   0.2764   1.0000
  14.250   0.8676   0.18466   0.17701  -0.0790   0.2663   1.0000
  14.500   0.8511   0.18499   0.17729  -0.0821   0.2596   1.0000
  14.750   0.8863   0.19366   0.18611  -0.0809   0.2514   1.0000
  15.000   0.8647   0.19268   0.18505  -0.0847   0.2468   1.0000
  15.250   0.8909   0.19939   0.19188  -0.0839   0.2368   1.0000
  15.500   0.8791   0.20013   0.19255  -0.0874   0.2327   1.0000
  15.750   0.8870   0.20354   0.19599  -0.0887   0.2252   1.0000
  16.000   0.9034   0.20978   0.20228  -0.0891   0.2205   1.0000
  16.250   0.8976   0.21036   0.20284  -0.0923   0.2134   1.0000
  16.500   0.9302   0.22037   0.21298  -0.0907   0.2064   1.0000
  16.750   0.9136   0.21809   0.21063  -0.0953   0.2030   1.0000
  17.000   0.9205   0.22112   0.21368  -0.0970   0.1963   1.0000
  17.250   0.9428   0.22937   0.22201  -0.0964   0.1914   1.0000
  17.500   0.9336   0.22811   0.22070  -0.1007   0.1866   1.0000
  17.750   0.9449   0.23203   0.22467  -0.1017   0.1800   1.0000
  18.000   0.9644   0.24038   0.23308  -0.1016   0.1769   1.0000
  18.250   0.9563   0.23869   0.23133  -0.1061   0.1730   1.0000
  18.500   0.9647   0.24189   0.23458  -0.1077   0.1669   1.0000
  18.750   0.9876   0.25163   0.24440  -0.1068   0.1626   1.0000
  19.000   0.9795   0.24912   0.24183  -0.1116   0.1595   1.0000
  19.250   0.9860   0.25182   0.24456  -0.1138   0.1543   1.0000
  19.500   1.0005   0.25735   0.25015  -0.1141   0.1501   1.0000
  19.750   1.0102   0.26275   0.25555  -0.1158   0.1480   1.0000
  20.000   1.0085   0.26198   0.25476  -0.1199   0.1438   1.0000
   0.000   0.0077   0.02187   0.01272  -0.0255   1.0000   1.0000
  -0.250  -0.0105   0.02128   0.01233  -0.0256   1.0000   1.0000
  -0.500  -0.0291   0.02075   0.01204  -0.0257   1.0000   1.0000
  -0.750  -0.0480   0.02027   0.01183  -0.0259   1.0000   1.0000
  -1.000  -0.0672   0.01986   0.01172  -0.0261   1.0000   1.0000
  -1.250  -0.0869   0.01951   0.01173  -0.0263   1.0000   1.0000
  -1.500  -0.1072   0.01922   0.01191  -0.0264   1.0000   1.0000
  -1.750  -0.1425   0.01969   0.01260  -0.0256   1.0000   0.7406
  -2.000  -0.1456   0.02197   0.01260  -0.0331   1.0000   0.3679
  -2.250  -0.1697   0.02375   0.01353  -0.0338   1.0000   0.2454
  -2.500  -0.1924   0.02501   0.01460  -0.0348   1.0000   0.1979
  -2.750  -0.2162   0.02627   0.01590  -0.0357   1.0000   0.1710
  -3.000  -0.2395   0.02760   0.01730  -0.0365   1.0000   0.1536
  -3.250  -0.2638   0.02921   0.01916  -0.0372   1.0000   0.1435
  -3.500  -0.2858   0.03089   0.02088  -0.0379   1.0000   0.1343
  -3.750  -0.3100   0.03314   0.02362  -0.0384   1.0000   0.1315
  -4.000  -0.3333   0.03560   0.02663  -0.0387   1.0000   0.1289
  -4.250  -0.3548   0.03838   0.02991  -0.0389   1.0000   0.1277
  -4.500  -0.3745   0.04173   0.03367  -0.0390   1.0000   0.1304
  -4.750  -0.3923   0.04507   0.03723  -0.0394   1.0000   0.1344
  -5.000  -0.4108   0.05227   0.04547  -0.0354   1.0000   0.1603
  -5.000  -0.4108   0.05227   0.04547  -0.0354   1.0000   0.1603
  -5.100  -0.4172   0.05367   0.04684  -0.0361   1.0000   0.1658
  -5.500  -0.3773   0.07388   0.06805   0.0027   1.0000   0.4118
  -5.750  -0.3773   0.07621   0.07028  -0.0003   1.0000   0.3941
  -5.850  -0.3889   0.07826   0.07233  -0.0012   1.0000   0.3892
  -5.950  -0.3680   0.07758   0.07154  -0.0030   1.0000   0.3805
  -6.250  -0.3665   0.08028   0.07412  -0.0063   1.0000   0.3621
  -6.350  -0.3848   0.08290   0.07676  -0.0066   1.0000   0.3567
  -6.450  -0.3588   0.08180   0.07552  -0.0086   1.0000   0.3510
  -6.750  -0.3558   0.08450   0.07808  -0.0112   1.0000   0.3337
  -7.000  -0.3575   0.08714   0.08063  -0.0129   1.0000   0.3201
  -7.250  -0.3636   0.09011   0.08353  -0.0144   1.0000   0.3059
  -7.500  -0.3761   0.09369   0.08706  -0.0159   1.0000   0.2915
  -7.750  -0.3925   0.09772   0.09108  -0.0175   1.0000   0.2763
  -8.000  -0.3652   0.09750   0.09065  -0.0169   1.0000   0.2658
  -8.250  -0.3712   0.10084   0.09393  -0.0173   1.0000   0.2571
  -8.500  -0.3872   0.10470   0.09778  -0.0184   1.0000   0.2455
  -8.750  -0.3733   0.10615   0.09909  -0.0170   1.0000   0.2381
  -9.000  -0.4089   0.11294   0.10594  -0.0194   1.0000   0.2281
  -9.250  -0.3811   0.11211   0.10493  -0.0165   1.0000   0.2222
  -9.500  -0.4049   0.11732   0.11017  -0.0179   1.0000   0.2130
  -9.750  -0.3925   0.11864   0.11136  -0.0158   1.0000   0.2086
 -10.000  -0.3982   0.12151   0.11419  -0.0155   1.0000   0.2000
 -10.250  -0.4135   0.12662   0.11930  -0.0158   1.0000   0.1952
 -10.500  -0.4028   0.12741   0.11999  -0.0136   1.0000   0.1882
 -10.750  -0.4396   0.13565   0.12829  -0.0161   1.0000   0.1803
 -11.000  -0.4178   0.13458   0.12710  -0.0126   1.0000   0.1776
 -11.250  -0.4190   0.13677   0.12924  -0.0114   1.0000   0.1705
 -11.500  -0.4465   0.14425   0.13675  -0.0129   1.0000   0.1642
 -11.750  -0.4321   0.14377   0.13618  -0.0098   1.0000   0.1614
 -12.000  -0.4349   0.14619   0.13856  -0.0085   1.0000   0.1554
 -12.250  -0.4629   0.15373   0.14616  -0.0100   1.0000   0.1495
 -12.500  -0.4586   0.15546   0.14781  -0.0078   1.0000   0.1480
 -12.750  -0.4526   0.15600   0.14829  -0.0053   1.0000   0.1442
 -13.000  -0.4587   0.15889   0.15116  -0.0042   1.0000   0.1395
 -13.250  -0.4761   0.16435   0.15664  -0.0044   1.0000   0.1350
 -13.500  -0.4884   0.16999   0.16225  -0.0037   1.0000   0.1331
 -13.750  -0.4807   0.16942   0.16162  -0.0009   1.0000   0.1309
 -14.000  -0.4839   0.17153   0.16370   0.0009   1.0000   0.1268
 -14.250  -0.4927   0.17486   0.16702   0.0019   1.0000   0.1229
 -14.500  -0.5130   0.18183   0.17404   0.0015   1.0000   0.1193
 -14.750  -0.5211   0.18633   0.17850   0.0029   1.0000   0.1180
 -15.000  -0.5169   0.18564   0.17775   0.0057   1.0000   0.1165
 -15.250  -0.5201   0.18725   0.17934   0.0079   1.0000   0.1129
 -15.500  -0.5282   0.19025   0.18233   0.0092   1.0000   0.1092
 -15.750  -0.5416   0.19505   0.18714   0.0096   1.0000   0.1056
 -16.000  -0.5620   0.20425   0.19636   0.0096   1.0000   0.1036
 -16.250  -0.5573   0.20236   0.19441   0.0128   1.0000   0.1027
 -16.500  -0.5597   0.20302   0.19504   0.0154   1.0000   0.1002
 -16.750  -0.5669   0.20555   0.19756   0.0172   1.0000   0.0975
 -17.000  -0.5757   0.20868   0.20069   0.0188   1.0000   0.0947
 -17.250  -0.5865   0.21260   0.20461   0.0198   1.0000   0.0923
 -17.500  -0.6087   0.22328   0.21535   0.0191   1.0000   0.0900
 -17.750  -0.6133   0.22534   0.21736   0.0214   1.0000   0.0895
 -18.000  -0.6136   0.22403   0.21600   0.0245   1.0000   0.0888
 -18.250  -0.6177   0.22458   0.21654   0.0272   1.0000   0.0871
 -18.500  -0.6252   0.22686   0.21881   0.0294   1.0000   0.0850
 -18.750  -0.6336   0.22968   0.22163   0.0312   1.0000   0.0827
 -19.000  -0.6427   0.23279   0.22475   0.0328   1.0000   0.0807
 -19.250  -0.6531   0.23670   0.22867   0.0341   1.0000   0.0788
 -19.500  -0.6680   0.24433   0.23632   0.0344   1.0000   0.0771
 -19.750  -0.6797   0.25087   0.24285   0.0357   1.0000   0.0764
 -20.000  -0.6818   0.24912   0.24107   0.0389   1.0000   0.0759
