  
       XFOIL         Version 6.99
  
 Calculated polar for: PT40                                            
  
 1 1 Reynolds number fixed          Mach number fixed         
  
 xtrf =   1.000 (top)        1.000 (bottom)  
 Mach =   0.000     Re =     0.050 e 6     Ncrit =   9.000
  
   alpha    CL        CD       CDp       CM     Top_Xtr  Bot_Xtr
  ------ -------- --------- --------- -------- -------- --------
   0.000  -0.0205   0.03946   0.02998  -0.0417   0.9840   0.2095
   0.250   0.0325   0.03891   0.02912  -0.0469   0.9719   0.2085
   0.500   0.0828   0.03845   0.02852  -0.0515   0.9587   0.2102
   0.750   0.1321   0.03812   0.02802  -0.0557   0.9444   0.2111
   1.000   0.1831   0.03784   0.02769  -0.0599   0.9282   0.2166
   1.250   0.2403   0.03754   0.02725  -0.0643   0.9097   0.2236
   1.500   0.2874   0.03699   0.02675  -0.0668   0.8886   0.2314
   1.750   0.3350   0.03651   0.02631  -0.0691   0.8672   0.2456
   2.000   0.3830   0.03575   0.02577  -0.0713   0.8466   0.2652
   2.250   0.4318   0.03468   0.02515  -0.0735   0.8264   0.3113
   2.500   0.4843   0.03193   0.02422  -0.0741   0.8080   1.0000
   2.750   0.5334   0.03141   0.02331  -0.0749   0.7865   1.0000
   3.000   0.5772   0.03074   0.02246  -0.0749   0.7636   1.0000
   3.250   0.6204   0.02986   0.02148  -0.0745   0.7396   1.0000
   3.500   0.6643   0.02873   0.02025  -0.0737   0.7143   1.0000
   3.750   0.7107   0.02730   0.01869  -0.0728   0.6876   1.0000
   4.000   0.7374   0.02684   0.01814  -0.0701   0.6516   1.0000
   4.250   0.7678   0.02626   0.01739  -0.0676   0.6135   1.0000
   4.500   0.7963   0.02599   0.01686  -0.0653   0.5735   1.0000
   4.750   0.8224   0.02612   0.01670  -0.0632   0.5350   1.0000
   5.000   0.8487   0.02653   0.01680  -0.0614   0.5018   1.0000
   5.250   0.8719   0.02725   0.01734  -0.0598   0.4721   1.0000
   5.500   0.8976   0.02801   0.01784  -0.0586   0.4481   1.0000
   5.750   0.9227   0.02889   0.01853  -0.0574   0.4270   1.0000
   6.000   0.9462   0.02991   0.01946  -0.0563   0.4082   1.0000
   6.250   0.9683   0.03104   0.02056  -0.0551   0.3909   1.0000
   6.500   0.9898   0.03230   0.02184  -0.0538   0.3752   1.0000
   6.750   1.0116   0.03357   0.02311  -0.0526   0.3603   1.0000
   7.000   1.0345   0.03476   0.02421  -0.0515   0.3454   1.0000
   7.250   1.0568   0.03581   0.02513  -0.0502   0.3288   1.0000
   7.500   1.0779   0.03681   0.02599  -0.0488   0.3111   1.0000
   7.750   1.0988   0.03788   0.02692  -0.0474   0.2935   1.0000
   8.000   1.1163   0.03917   0.02823  -0.0457   0.2768   1.0000
   8.250   1.1309   0.04078   0.02995  -0.0438   0.2609   1.0000
   8.500   1.1449   0.04262   0.03187  -0.0418   0.2452   1.0000
   8.750   1.1580   0.04467   0.03399  -0.0398   0.2303   1.0000
   9.000   1.1720   0.04685   0.03620  -0.0380   0.2168   1.0000
   9.250   1.1932   0.04876   0.03791  -0.0370   0.2042   1.0000
   9.500   1.1886   0.05195   0.04163  -0.0336   0.1958   1.0000
   9.750   1.2065   0.05420   0.04377  -0.0325   0.1873   1.0000
  10.000   1.1920   0.05815   0.04824  -0.0288   0.1827   1.0000
  10.250   1.1961   0.06106   0.05129  -0.0269   0.1774   1.0000
  10.500   1.2083   0.06404   0.05425  -0.0257   0.1728   1.0000
  10.750   1.1784   0.06903   0.05966  -0.0222   0.1719   1.0000
  11.000   1.1416   0.07431   0.06523  -0.0191   0.1719   1.0000
  11.250   1.0988   0.08087   0.07201  -0.0178   0.1726   1.0000
  11.500   1.0562   0.08911   0.08041  -0.0193   0.1736   1.0000
  11.500   1.0562   0.08910   0.08041  -0.0193   0.1736   1.0000
  11.750   0.8581   0.13236   0.12394  -0.0479   0.2046   1.0000
  12.750   0.7911   0.17088   0.16256  -0.0720   0.2930   1.0000
  13.000   0.7743   0.17158   0.16322  -0.0739   0.2834   1.0000
  13.250   0.8062   0.17748   0.16914  -0.0729   0.2765   1.0000
  13.500   0.7949   0.17968   0.17129  -0.0752   0.2729   1.0000
  13.750   0.7934   0.18172   0.17331  -0.0767   0.2646   1.0000
  14.000   0.8159   0.18673   0.17832  -0.0762   0.2591   1.0000
  14.250   0.8216   0.19097   0.18253  -0.0775   0.2559   1.0000
  14.500   0.8130   0.19159   0.18312  -0.0800   0.2477   1.0000
  14.750   0.8320   0.19604   0.18759  -0.0797   0.2417   1.0000
  15.000   0.8542   0.20320   0.19474  -0.0797   0.2388   1.0000
  15.250   0.8350   0.20151   0.19300  -0.0836   0.2331   1.0000
  15.500   0.8439   0.20457   0.19605  -0.0846   0.2275   1.0000
  15.750   0.8640   0.20987   0.20136  -0.0843   0.2235   1.0000
  16.000   0.8761   0.21534   0.20682  -0.0853   0.2211   1.0000
  16.250   0.8648   0.21410   0.20555  -0.0891   0.2153   1.0000
  16.500   0.8751   0.21722   0.20867  -0.0901   0.2097   1.0000
  16.750   0.8977   0.22370   0.21517  -0.0893   0.2060   1.0000
  17.000   0.9035   0.22750   0.21894  -0.0912   0.2042   1.0000
  17.250   0.8964   0.22653   0.21795  -0.0951   0.1995   1.0000
  17.500   0.9047   0.22934   0.22075  -0.0965   0.1949   1.0000
  17.750   0.9186   0.23353   0.22496  -0.0970   0.1914   1.0000
  18.000   0.9483   0.24464   0.23612  -0.0955   0.1890   1.0000
  18.250   0.9320   0.23986   0.23127  -0.1008   0.1866   1.0000
  18.500   0.9360   0.24135   0.23276  -0.1034   0.1815   1.0000
  18.750   0.9469   0.24466   0.23608  -0.1044   0.1775   1.0000
  19.000   0.9641   0.25062   0.24207  -0.1043   0.1748   1.0000
  19.250   0.9768   0.25674   0.24818  -0.1053   0.1734   1.0000
  19.500   0.9703   0.25398   0.24540  -0.1100   0.1707   1.0000
  19.750   0.9766   0.25608   0.24750  -0.1123   0.1668   1.0000
  20.000   0.9866   0.25923   0.25067  -0.1136   0.1634   1.0000
   0.000  -0.0205   0.03946   0.02998  -0.0417   0.9840   0.2095
  -0.250  -0.0796   0.04050   0.03151  -0.0353   0.9953   0.2183
  -0.500  -0.1176   0.04180   0.03297  -0.0320   1.0000   0.2233
  -0.750  -0.1479   0.04284   0.03459  -0.0300   1.0000   0.2368
  -1.000  -0.1722   0.04450   0.03639  -0.0290   1.0000   0.2492
  -1.250  -0.1488   0.05424   0.04893   0.0395   1.0000   0.8671
  -1.500  -0.0790   0.05313   0.04765   0.0275   1.0000   0.9045
  -1.750  -0.0061   0.05123   0.04556   0.0137   1.0000   0.9413
  -2.000   0.0710   0.04848   0.04259  -0.0026   1.0000   0.9752
  -2.250   0.1411   0.04552   0.03940  -0.0189   1.0000   1.0000
  -2.500   0.1430   0.04616   0.03991  -0.0207   1.0000   1.0000
  -2.750   0.1425   0.04699   0.04061  -0.0221   1.0000   1.0000
  -3.000   0.1399   0.04800   0.04150  -0.0231   1.0000   1.0000
  -3.250  -0.3745   0.07439   0.06860   0.0321   1.0000   0.5147
  -3.500  -0.3652   0.07521   0.06932   0.0269   1.0000   0.4797
  -3.750  -0.3915   0.07859   0.07261   0.0208   1.0000   0.4500
  -4.000  -0.3866   0.08036   0.07426   0.0166   1.0000   0.4258
  -4.000  -0.3866   0.08036   0.07426   0.0166   1.0000   0.4258
  -4.100  -0.3561   0.07907   0.07291   0.0162   1.0000   0.4164
  -4.200  -0.3751   0.08057   0.07440   0.0139   1.0000   0.4065
  -4.500  -0.3728   0.08280   0.07651   0.0093   1.0000   0.3833
  -4.500  -0.3728   0.08281   0.07651   0.0093   1.0000   0.3833
  -4.600  -0.3634   0.08356   0.07720   0.0083   1.0000   0.3787
  -4.700  -0.3417   0.08293   0.07649   0.0072   1.0000   0.3720
  -5.000  -0.3462   0.08580   0.07925   0.0032   1.0000   0.3548
  -5.250  -0.3460   0.08737   0.08072  -0.0001   1.0000   0.3394
  -5.500  -0.3232   0.08860   0.08177  -0.0029   1.0000   0.3300
  -5.750  -0.3505   0.09218   0.08532  -0.0058   1.0000   0.3151
  -6.000  -0.3136   0.09237   0.08528  -0.0085   1.0000   0.3087
  -6.250  -0.3100   0.09382   0.08661  -0.0109   1.0000   0.2965
  -6.500  -0.3201   0.09746   0.09016  -0.0125   1.0000   0.2885
  -6.750  -0.2992   0.09758   0.09012  -0.0142   1.0000   0.2776
  -7.000  -0.3394   0.10383   0.09637  -0.0157   1.0000   0.2679
  -7.250  -0.3003   0.10224   0.09457  -0.0162   1.0000   0.2600
  -7.500  -0.3243   0.10611   0.09841  -0.0180   1.0000   0.2495
  -7.750  -0.3211   0.10887   0.10105  -0.0181   1.0000   0.2445
  -8.000  -0.3094   0.10949   0.10156  -0.0177   1.0000   0.2351
  -8.250  -0.3340   0.11388   0.10594  -0.0193   1.0000   0.2278
  -8.500  -0.3399   0.11778   0.10975  -0.0193   1.0000   0.2242
  -8.750  -0.3216   0.11744   0.10930  -0.0176   1.0000   0.2169
  -9.000  -0.3323   0.12039   0.11221  -0.0180   1.0000   0.2101
  -9.250  -0.3788   0.12967   0.12151  -0.0208   1.0000   0.2048
  -9.500  -0.3438   0.12674   0.11843  -0.0174   1.0000   0.2016
  -9.750  -0.3419   0.12822   0.11985  -0.0164   1.0000   0.1946
 -10.000  -0.3577   0.13194   0.12355  -0.0170   1.0000   0.1886
 -10.250  -0.3908   0.14018   0.13178  -0.0187   1.0000   0.1850
 -10.500  -0.3649   0.13781   0.12930  -0.0154   1.0000   0.1821
 -10.750  -0.3644   0.13941   0.13086  -0.0142   1.0000   0.1768
 -11.000  -0.3739   0.14246   0.13388  -0.0139   1.0000   0.1721
 -11.250  -0.3970   0.14811   0.13952  -0.0148   1.0000   0.1684
 -11.500  -0.4093   0.15328   0.14465  -0.0145   1.0000   0.1664
 -11.750  -0.3927   0.15160   0.14290  -0.0116   1.0000   0.1634
 -12.000  -0.3955   0.15353   0.14480  -0.0104   1.0000   0.1586
 -12.250  -0.4061   0.15676   0.14801  -0.0100   1.0000   0.1544
 -12.500  -0.4327   0.16390   0.15516  -0.0111   1.0000   0.1510
 -12.750  -0.4366   0.16713   0.15833  -0.0098   1.0000   0.1496
 -13.000  -0.4261   0.16587   0.15703  -0.0071   1.0000   0.1473
 -13.250  -0.4296   0.16773   0.15886  -0.0057   1.0000   0.1437
 -13.500  -0.4379   0.17056   0.16168  -0.0048   1.0000   0.1404
 -13.750  -0.4508   0.17450   0.16560  -0.0044   1.0000   0.1376
 -14.000  -0.4850   0.18554   0.17665  -0.0058   1.0000   0.1352
 -14.250  -0.4693   0.18212   0.17317  -0.0026   1.0000   0.1342
 -14.500  -0.4677   0.18213   0.17315  -0.0002   1.0000   0.1313
 -14.750  -0.4746   0.18450   0.17551   0.0011   1.0000   0.1281
 -15.000  -0.4843   0.18760   0.17861   0.0021   1.0000   0.1254
 -15.250  -0.4979   0.19206   0.18306   0.0025   1.0000   0.1233
 -15.500  -0.5224   0.20149   0.19248   0.0021   1.0000   0.1218
 -15.750  -0.5142   0.19874   0.18969   0.0051   1.0000   0.1210
 -16.000  -0.5157   0.19902   0.18995   0.0076   1.0000   0.1188
 -16.250  -0.5229   0.20127   0.19221   0.0092   1.0000   0.1161
 -16.500  -0.5324   0.20422   0.19514   0.0104   1.0000   0.1136
 -16.750  -0.5447   0.20835   0.19927   0.0111   1.0000   0.1115
 -16.750  -0.5447   0.20835   0.19927   0.0111   1.0000   0.1115
 -16.850  -0.5514   0.21096   0.20189   0.0111   1.0000   0.1108
 -16.950  -0.5608   0.21502   0.20596   0.0109   1.0000   0.1103
 -17.250  -0.5632   0.21554   0.20643   0.0138   1.0000   0.1095
 -17.500  -0.5665   0.21586   0.20675   0.0164   1.0000   0.1080
 -17.750  -0.5738   0.21795   0.20883   0.0184   1.0000   0.1059
 -18.000  -0.5826   0.22062   0.21150   0.0199   1.0000   0.1038
 -18.250  -0.5928   0.22385   0.21473   0.0212   1.0000   0.1019
 -18.500  -0.6061   0.22903   0.21992   0.0218   1.0000   0.1003
 -18.750  -0.6166   0.23355   0.22442   0.0231   1.0000   0.0995
 -19.000  -0.6191   0.23287   0.22373   0.0261   1.0000   0.0985
 -19.250  -0.6260   0.23449   0.22535   0.0284   1.0000   0.0970
 -19.500  -0.6344   0.23692   0.22779   0.0302   1.0000   0.0952
 -19.750  -0.6436   0.23970   0.23057   0.0319   1.0000   0.0936
 -20.000  -0.6537   0.24302   0.23390   0.0333   1.0000   0.0921
