  
       XFOIL         Version 6.99
  
 Calculated polar for: R140 (original)                                 
  
 1 1 Reynolds number fixed          Mach number fixed         
  
 xtrf =   1.000 (top)        1.000 (bottom)  
 Mach =   0.000     Re =     0.050 e 6     Ncrit =   9.000
  
   alpha    CL        CD       CDp       CM     Top_Xtr  Bot_Xtr
  ------ -------- --------- --------- -------- -------- --------
   0.000  -0.0639   0.02581   0.01509   0.0040   1.0000   1.0000
   0.250  -0.0723   0.02570   0.01492   0.0079   1.0000   1.0000
   0.500  -0.0774   0.02565   0.01480   0.0115   1.0000   1.0000
   0.750  -0.0787   0.02569   0.01477   0.0146   1.0000   1.0000
   1.000  -0.0761   0.02583   0.01483   0.0171   1.0000   1.0000
   1.000  -0.0761   0.02583   0.01483   0.0171   1.0000   1.0000
   1.100  -0.0741   0.02591   0.01487   0.0180   1.0000   1.0000
   1.200  -0.0573   0.02625   0.01520   0.0160   0.9959   1.0000
   1.500  -0.0113   0.02723   0.01616   0.0111   0.9836   1.0000
   1.750   0.0181   0.02791   0.01683   0.0088   0.9747   1.0000
   2.000   0.0494   0.02873   0.01764   0.0063   0.9663   1.0000
   2.250   0.0749   0.02944   0.01837   0.0049   0.9580   1.0000
   2.500   0.0987   0.03019   0.01915   0.0038   0.9502   1.0000
   2.750   0.1309   0.03117   0.02025   0.0013   0.9420   1.0000
   3.000   0.1498   0.03185   0.02096   0.0013   0.9327   1.0000
   3.250   0.1746   0.03270   0.02190   0.0003   0.9232   1.0000
   3.500   0.2041   0.03364   0.02295  -0.0015   0.9126   1.0000
   3.750   0.2353   0.03460   0.02407  -0.0035   0.9006   1.0000
   4.000   0.2643   0.03546   0.02516  -0.0049   0.8861   1.0000
   4.250   0.2920   0.03634   0.02623  -0.0061   0.8719   1.0000
   4.500   0.3189   0.03728   0.02737  -0.0071   0.8588   1.0000
   4.750   0.3447   0.03822   0.02854  -0.0078   0.8450   1.0000
   5.000   0.3738   0.03911   0.02970  -0.0089   0.8285   1.0000
   5.250   0.4195   0.03963   0.03075  -0.0114   0.8030   1.0000
   5.500   0.6431   0.02330   0.01431  -0.0069   0.2636   1.0000
   5.750   0.6231   0.02658   0.01623   0.0001   0.1513   1.0000
   6.000   0.6156   0.02931   0.01833   0.0055   0.1116   1.0000
   6.250   0.6383   0.03169   0.02063   0.0076   0.0886   1.0000
   6.500   0.6940   0.03486   0.02384   0.0055   0.0770   1.0000
   6.750   0.7315   0.03835   0.02752   0.0048   0.0723   1.0000
   7.000   0.7514   0.04074   0.03041   0.0069   0.0697   1.0000
   7.250   0.7685   0.04343   0.03352   0.0092   0.0683   1.0000
   7.500   0.7813   0.04628   0.03677   0.0118   0.0672   1.0000
   7.750   0.7907   0.04929   0.04017   0.0146   0.0671   1.0000
   8.000   0.7968   0.05261   0.04388   0.0175   0.0687   1.0000
   8.250   0.8022   0.05624   0.04778   0.0202   0.0707   1.0000
   8.500   0.8167   0.06143   0.05296   0.0211   0.0729   1.0000
   8.750   0.7942   0.06275   0.05515   0.0272   0.0775   1.0000
   9.000   0.7840   0.06640   0.05908   0.0302   0.0810   1.0000
   9.250   0.7931   0.07122   0.06399   0.0313   0.0872   1.0000
   9.750   0.7582   0.07928   0.07250   0.0363   0.1000   1.0000
   9.600   0.7845   0.07872   0.07173   0.0336   0.0989   1.0000
   9.700   0.7659   0.07914   0.07227   0.0353   0.0985   1.0000
  10.000   0.7192   0.08169   0.07496   0.0385   0.0970   1.0000
  10.250   0.6908   0.08639   0.07976   0.0374   0.1016   1.0000
  10.500   0.6519   0.09343   0.08680   0.0322   0.1061   1.0000
  11.250   0.4523   0.12065   0.11415   0.0092   0.2620   1.0000
  11.500   0.5608   0.13221   0.12512  -0.0007   0.2778   1.0000
  11.350   0.4491   0.12226   0.11574   0.0087   0.2640   1.0000
  11.450   0.4478   0.12384   0.11730   0.0082   0.2653   1.0000
  11.750   0.4448   0.12821   0.12165   0.0071   0.2653   1.0000
  12.000   0.4459   0.13165   0.12508   0.0065   0.2616   1.0000
  12.250   0.4637   0.13725   0.13068   0.0064   0.2569   1.0000
  12.000   0.4459   0.13165   0.12508   0.0065   0.2616   1.0000
  12.100   0.4517   0.13357   0.12700   0.0065   0.2594   1.0000
  12.200   0.4628   0.13628   0.12974   0.0065   0.2578   1.0000
  12.750   0.4537   0.14162   0.13501   0.0051   0.2420   1.0000
  13.000   0.4571   0.14433   0.13773   0.0048   0.2322   1.0000
  13.250   0.4478   0.14542   0.13879   0.0040   0.2252   1.0000
  13.500   0.4637   0.15037   0.14375   0.0040   0.2166   1.0000
  13.750   0.4519   0.15025   0.14363   0.0030   0.2081   1.0000
  14.000   0.4574   0.15356   0.14692   0.0024   0.2017   1.0000
  13.750   0.4519   0.15025   0.14362   0.0030   0.2081   1.0000
  13.850   0.4726   0.15505   0.14852   0.0036   0.2035   1.0000
  13.950   0.4622   0.15402   0.14748   0.0028   0.2026   1.0000
  14.250   0.4779   0.15945   0.15292   0.0028   0.1902   1.0000
  14.500   0.4583   0.15778   0.15122   0.0007   0.1867   1.0000
  14.750   0.4772   0.16343   0.15689   0.0010   0.1765   1.0000
  15.000   0.4624   0.16243   0.15586  -0.0011   0.1721   1.0000
  15.250   0.4799   0.16792   0.16136  -0.0008   0.1631   1.0000
  15.500   0.4684   0.16737   0.16079  -0.0030   0.1582   1.0000
  15.750   0.4875   0.17340   0.16684  -0.0026   0.1503   1.0000
  16.000   0.4757   0.17261   0.16603  -0.0050   0.1466   1.0000
  16.250   0.4834   0.17579   0.16923  -0.0057   0.1400   1.0000
  16.500   0.4904   0.17971   0.17314  -0.0065   0.1370   1.0000
  16.750   0.4856   0.18029   0.17371  -0.0086   0.1327   1.0000
  17.000   0.4935   0.18366   0.17709  -0.0093   0.1272   1.0000
  17.250   0.5049   0.18891   0.18235  -0.0098   0.1244   1.0000
  17.500   0.4982   0.18874   0.18217  -0.0122   0.1217   1.0000
  17.750   0.5012   0.19106   0.18449  -0.0136   0.1170   1.0000
  18.000   0.5178   0.19733   0.19080  -0.0135   0.1123   1.0000
  18.250   0.5173   0.19918   0.19262  -0.0153   0.1111   1.0000
  18.500   0.5139   0.19965   0.19309  -0.0176   0.1084   1.0000
  18.750   0.5175   0.20215   0.19560  -0.0190   0.1042   1.0000
  19.000   0.5279   0.20655   0.20003  -0.0195   0.1003   1.0000
  19.250   0.5361   0.21143   0.20490  -0.0205   0.0987   1.0000
  19.500   0.5324   0.21152   0.20499  -0.0229   0.0972   1.0000
  19.750   0.5343   0.21355   0.20702  -0.0247   0.0942   1.0000
  20.000   0.5391   0.21641   0.20990  -0.0261   0.0909   1.0000
   0.000  -0.0639   0.02581   0.01509   0.0040   1.0000   1.0000
  -0.250  -0.0535   0.02591   0.01522  -0.0001   1.0000   1.0000
  -0.500  -0.0420   0.02597   0.01532  -0.0042   1.0000   1.0000
  -0.750  -0.0301   0.02596   0.01532  -0.0082   1.0000   1.0000
  -1.000  -0.0178   0.02588   0.01525  -0.0124   1.0000   1.0000
  -1.250  -0.0054   0.02573   0.01510  -0.0166   1.0000   1.0000
  -1.500   0.0060   0.02556   0.01494  -0.0209   1.0000   1.0000
  -1.750   0.0143   0.02546   0.01482  -0.0248   1.0000   1.0000
  -2.000   0.0180   0.02549   0.01481  -0.0281   1.0000   1.0000
  -2.250   0.0169   0.02565   0.01496  -0.0307   1.0000   1.0000
  -2.500   0.0107   0.02596   0.01526  -0.0325   1.0000   0.9995
  -2.750  -0.0338   0.02699   0.01644  -0.0269   1.0000   0.9868
  -3.000  -0.0729   0.02799   0.01757  -0.0226   1.0000   0.9744
  -3.250  -0.1104   0.02895   0.01877  -0.0187   1.0000   0.9614
  -3.500  -0.1460   0.02990   0.01991  -0.0153   1.0000   0.9481
  -3.750  -0.1813   0.03086   0.02110  -0.0121   1.0000   0.9338
  -4.000  -0.2185   0.03183   0.02233  -0.0088   1.0000   0.9183
  -4.750  -0.5500   0.02428   0.01459   0.0034   1.0000   0.2341
  -5.000  -0.5606   0.02648   0.01636   0.0004   1.0000   0.1860
  -5.250  -0.5856   0.02921   0.01885  -0.0012   1.0000   0.1341
  -5.500  -0.6017   0.03142   0.02085  -0.0032   1.0000   0.0966
  -5.750  -0.6268   0.03389   0.02339  -0.0044   1.0000   0.0817
  -6.000  -0.6498   0.03672   0.02643  -0.0059   1.0000   0.0765
  -5.750  -0.6268   0.03389   0.02339  -0.0044   1.0000   0.0817
  -5.850  -0.6373   0.03528   0.02468  -0.0046   1.0000   0.0780
  -5.950  -0.6457   0.03625   0.02589  -0.0055   1.0000   0.0768
  -6.250  -0.6675   0.03954   0.02974  -0.0085   1.0000   0.0745
  -6.500  -0.6815   0.04251   0.03313  -0.0113   1.0000   0.0742
  -6.750  -0.6916   0.04560   0.03661  -0.0144   1.0000   0.0751
  -7.000  -0.7002   0.04877   0.04008  -0.0172   1.0000   0.0766
  -7.250  -0.7094   0.05274   0.04421  -0.0197   1.0000   0.0781
  -7.500  -0.7019   0.05533   0.04763  -0.0249   1.0000   0.0840
  -7.750  -0.7017   0.05915   0.05169  -0.0279   1.0000   0.0881
  -8.000  -0.6957   0.06268   0.05562  -0.0313   1.0000   0.0955
  -8.250  -0.6986   0.06736   0.06047  -0.0332   1.0000   0.1056
  -8.500  -0.6938   0.07417   0.06758  -0.0346   1.0000   0.1309
  -8.750  -0.6564   0.07607   0.06972  -0.0374   1.0000   0.1330
  -9.000  -0.6320   0.08199   0.07574  -0.0371   1.0000   0.1581
  -9.250  -0.5948   0.08603   0.07973  -0.0358   1.0000   0.1594
 -10.000  -0.5201   0.11271   0.10606  -0.0098   1.0000   0.3048
 -10.250  -0.5205   0.11611   0.10940  -0.0101   1.0000   0.2910
 -10.500  -0.5194   0.11932   0.11255  -0.0102   1.0000   0.2771
 -10.750  -0.5184   0.12264   0.11582  -0.0102   1.0000   0.2632
 -11.000  -0.5251   0.12644   0.11957  -0.0105   1.0000   0.2504
 -11.250  -0.5326   0.12996   0.12309  -0.0107   1.0000   0.2386
 -11.750  -0.5216   0.13612   0.12909  -0.0088   1.0000   0.2176
 -11.500  -0.5219   0.13248   0.12551  -0.0094   1.0000   0.2281
 -11.600  -0.5418   0.13594   0.12901  -0.0108   1.0000   0.2240
 -11.700  -0.5230   0.13561   0.12858  -0.0090   1.0000   0.2204
 -12.000  -0.5398   0.14129   0.13427  -0.0094   1.0000   0.2101
 -12.250  -0.5309   0.14337   0.13628  -0.0078   1.0000   0.2011
 -12.500  -0.5352   0.14741   0.14028  -0.0071   1.0000   0.1946
 -12.750  -0.5595   0.15360   0.14649  -0.0085   1.0000   0.1838
 -13.000  -0.5387   0.15416   0.14693  -0.0051   1.0000   0.1790
 -13.250  -0.5647   0.16073   0.15355  -0.0066   1.0000   0.1702
 -13.500  -0.5465   0.16111   0.15382  -0.0032   1.0000   0.1657
 -13.250  -0.5647   0.16073   0.15355  -0.0066   1.0000   0.1702
 -13.350  -0.5584   0.16097   0.15375  -0.0052   1.0000   0.1696
 -13.450  -0.5478   0.16076   0.15348  -0.0036   1.0000   0.1671
 -13.750  -0.5756   0.16838   0.16115  -0.0049   1.0000   0.1568
 -14.000  -0.5574   0.16824   0.16089  -0.0014   1.0000   0.1537
 -14.250  -0.5665   0.17197   0.16461  -0.0008   1.0000   0.1458
 -14.500  -0.5725   0.17606   0.16867   0.0003   1.0000   0.1424
 -14.750  -0.5699   0.17787   0.17043   0.0024   1.0000   0.1365
 -15.000  -0.5973   0.18621   0.17881   0.0011   1.0000   0.1305
 -15.250  -0.5846   0.18556   0.17806   0.0045   1.0000   0.1285
 -15.500  -0.5866   0.18790   0.18036   0.0065   1.0000   0.1233
 -15.750  -0.6029   0.19327   0.18588   0.0063   1.0000   0.1185
 -16.000  -0.6075   0.19702   0.18956   0.0080   1.0000   0.1163
 -16.250  -0.6057   0.19797   0.19047   0.0107   1.0000   0.1133
 -16.500  -0.6123   0.20095   0.19344   0.0122   1.0000   0.1088
 -16.750  -0.6375   0.21055   0.20308   0.0109   1.0000   0.1040
 -17.000  -0.6325   0.20999   0.20245   0.0140   1.0000   0.1033
 -17.250  -0.6317   0.21063   0.20303   0.0170   1.0000   0.0994
 -17.500  -0.6394   0.21379   0.20618   0.0184   1.0000   0.0955
 -17.750  -0.6661   0.22507   0.21753   0.0168   1.0000   0.0911
 -18.000  -0.6622   0.22396   0.21635   0.0200   1.0000   0.0906
 -18.250  -0.6610   0.22356   0.21589   0.0233   1.0000   0.0883
 -18.500  -0.6671   0.22604   0.21835   0.0253   1.0000   0.0852
 -18.750  -0.6761   0.22943   0.22174   0.0266   1.0000   0.0816
 -19.000  -0.6981   0.24036   0.23271   0.0255   1.0000   0.0784
 -19.250  -0.6977   0.23955   0.23185   0.0286   1.0000   0.0780
 -19.500  -0.6990   0.23934   0.23160   0.0317   1.0000   0.0768
 -19.750  -0.7045   0.24130   0.23354   0.0341   1.0000   0.0744
 -20.000  -0.7121   0.24418   0.23642   0.0360   1.0000   0.0718
