  
       XFOIL         Version 6.99
  
 Calculated polar for: R140 (original)                                 
  
 1 1 Reynolds number fixed          Mach number fixed         
  
 xtrf =   1.000 (top)        1.000 (bottom)  
 Mach =   0.000     Re =     0.050 e 6     Ncrit =   9.000
  
   alpha    CL        CD       CDp       CM     Top_Xtr  Bot_Xtr
  ------ -------- --------- --------- -------- -------- --------
   0.000  -0.0639   0.02581   0.01509   0.0040   1.0000   1.0000
   0.250  -0.0723   0.02570   0.01492   0.0079   1.0000   1.0000
   0.500  -0.0774   0.02565   0.01480   0.0115   1.0000   1.0000
   0.750  -0.0787   0.02569   0.01477   0.0146   1.0000   1.0000
   1.000  -0.0761   0.02583   0.01483   0.0171   1.0000   1.0000
   1.000  -0.0761   0.02583   0.01483   0.0171   1.0000   1.0000
   1.100  -0.0741   0.02591   0.01487   0.0180   1.0000   1.0000
   1.200  -0.0573   0.02625   0.01520   0.0160   0.9959   1.0000
   1.500  -0.0113   0.02723   0.01616   0.0111   0.9836   1.0000
   1.750   0.0181   0.02791   0.01683   0.0088   0.9747   1.0000
   2.000   0.0494   0.02873   0.01764   0.0063   0.9663   1.0000
   2.250   0.0749   0.02944   0.01837   0.0049   0.9580   1.0000
   2.500   0.0987   0.03019   0.01915   0.0038   0.9502   1.0000
   2.750   0.1309   0.03117   0.02025   0.0013   0.9420   1.0000
   3.000   0.1498   0.03185   0.02096   0.0013   0.9327   1.0000
   3.250   0.1746   0.03270   0.02190   0.0003   0.9232   1.0000
   3.500   0.2041   0.03364   0.02295  -0.0015   0.9126   1.0000
   3.750   0.2353   0.03460   0.02407  -0.0035   0.9006   1.0000
   4.000   0.2643   0.03546   0.02516  -0.0049   0.8861   1.0000
   4.250   0.2920   0.03634   0.02623  -0.0061   0.8719   1.0000
   4.500   0.3189   0.03728   0.02737  -0.0071   0.8588   1.0000
   4.750   0.3447   0.03822   0.02854  -0.0078   0.8450   1.0000
   5.000   0.3738   0.03911   0.02970  -0.0089   0.8285   1.0000
   5.250   0.4195   0.03963   0.03075  -0.0114   0.8030   1.0000
   5.500   0.6431   0.02330   0.01431  -0.0069   0.2636   1.0000
   5.750   0.6231   0.02658   0.01623   0.0001   0.1513   1.0000
   6.000   0.6156   0.02931   0.01833   0.0055   0.1116   1.0000
   6.250   0.6383   0.03169   0.02063   0.0076   0.0886   1.0000
   6.500   0.6940   0.03486   0.02384   0.0055   0.0770   1.0000
   6.750   0.7315   0.03835   0.02752   0.0048   0.0723   1.0000
   7.000   0.7514   0.04074   0.03041   0.0069   0.0697   1.0000
   7.250   0.7685   0.04343   0.03352   0.0092   0.0683   1.0000
   7.500   0.7813   0.04628   0.03677   0.0118   0.0672   1.0000
   7.750   0.7907   0.04929   0.04017   0.0146   0.0671   1.0000
   8.000   0.7968   0.05261   0.04388   0.0175   0.0687   1.0000
   8.250   0.8022   0.05624   0.04778   0.0202   0.0707   1.0000
   8.500   0.8167   0.06143   0.05296   0.0211   0.0729   1.0000
   8.750   0.7942   0.06275   0.05515   0.0272   0.0775   1.0000
   9.000   0.7840   0.06640   0.05908   0.0302   0.0810   1.0000
   9.250   0.7931   0.07122   0.06399   0.0313   0.0872   1.0000
   9.250   0.7026   0.06022   0.05350   0.0371   0.0808   1.0000
   9.350   0.6944   0.06167   0.05499   0.0384   0.0814   1.0000
   9.450   0.6884   0.06325   0.05661   0.0393   0.0824   1.0000
   9.750   0.7582   0.07928   0.07250   0.0363   0.1000   1.0000
  10.000   0.7264   0.08199   0.07531   0.0384   0.1006   1.0000
  10.250   0.6907   0.08639   0.07976   0.0374   0.1016   1.0000
  10.500   0.6519   0.09343   0.08680   0.0322   0.1061   1.0000
  10.750   0.6176   0.10697   0.10026   0.0205   0.1463   1.0000
  11.000   0.5657   0.12456   0.11758   0.0012   0.2870   1.0000
  11.250   0.5697   0.12909   0.12209   0.0003   0.2860   1.0000
  11.500   0.5609   0.13220   0.12512  -0.0007   0.2778   1.0000
  11.750   0.5829   0.13774   0.13068  -0.0002   0.2706   1.0000
  12.000   0.5787   0.14040   0.13329  -0.0008   0.2588   1.0000
  12.250   0.5740   0.14329   0.13610  -0.0016   0.2477   1.0000
  12.500   0.5763   0.14694   0.13972  -0.0023   0.2396   1.0000
  12.750   0.5842   0.15090   0.14376  -0.0024   0.2282   1.0000
  13.000   0.5972   0.15533   0.14819  -0.0021   0.2165   1.0000
  13.250   0.6133   0.16011   0.15297  -0.0015   0.2037   1.0000
  13.500   0.5923   0.16075   0.15350  -0.0045   0.1984   1.0000
  13.750   0.6054   0.16541   0.15816  -0.0044   0.1888   1.0000
  14.000   0.6054   0.16783   0.16055  -0.0057   0.1800   1.0000
  14.250   0.6099   0.17164   0.16431  -0.0067   0.1743   1.0000
  14.500   0.6188   0.17534   0.16801  -0.0072   0.1654   1.0000
  14.750   0.6200   0.17859   0.17121  -0.0088   0.1612   1.0000
  15.000   0.6253   0.18157   0.17418  -0.0099   0.1534   1.0000
  15.250   0.6323   0.18581   0.17838  -0.0109   0.1490   1.0000
  15.500   0.6330   0.18802   0.18055  -0.0128   0.1426   1.0000
  15.750   0.6517   0.19453   0.18707  -0.0124   0.1374   1.0000
  16.000   0.6445   0.19497   0.18744  -0.0155   0.1339   1.0000
  16.250   0.6531   0.19858   0.19105  -0.0165   0.1278   1.0000
  16.500   0.6694   0.20515   0.19762  -0.0165   0.1244   1.0000
  16.750   0.6628   0.20520   0.19759  -0.0199   0.1209   1.0000
  17.000   0.6692   0.20811   0.20049  -0.0214   0.1167   1.0000
  17.250   0.6942   0.21762   0.21004  -0.0201   0.1117   1.0000
  17.500   0.6876   0.21666   0.20901  -0.0236   0.1106   1.0000
  17.750   0.6884   0.21803   0.21034  -0.0263   0.1066   1.0000
  18.000   0.6968   0.22138   0.21369  -0.0276   0.1026   1.0000
  18.250   0.7189   0.23091   0.22324  -0.0266   0.0989   1.0000
  18.500   0.7146   0.22981   0.22207  -0.0301   0.0980   1.0000
  18.750   0.7169   0.23100   0.22324  -0.0329   0.0955   1.0000
  19.000   0.7235   0.23389   0.22611  -0.0348   0.0918   1.0000
  19.250   0.7335   0.23780   0.23013  -0.0358   0.0886   1.0000
  19.500   0.7565   0.24953   0.24190  -0.0346   0.0860   1.0000
  19.750   0.7535   0.24765   0.23995  -0.0381   0.0855   1.0000
  20.000   0.7549   0.24767   0.23994  -0.0413   0.0842   1.0000
   0.000  -0.0639   0.02581   0.01509   0.0040   1.0000   1.0000
  -0.250  -0.0535   0.02591   0.01522  -0.0001   1.0000   1.0000
  -0.500  -0.0420   0.02597   0.01532  -0.0042   1.0000   1.0000
  -0.750  -0.0301   0.02596   0.01532  -0.0082   1.0000   1.0000
  -1.000  -0.0178   0.02588   0.01525  -0.0124   1.0000   1.0000
  -1.250  -0.0054   0.02573   0.01510  -0.0166   1.0000   1.0000
  -1.500   0.0060   0.02556   0.01494  -0.0209   1.0000   1.0000
  -1.750   0.0143   0.02546   0.01482  -0.0248   1.0000   1.0000
  -2.000   0.0180   0.02549   0.01481  -0.0281   1.0000   1.0000
  -2.250   0.0169   0.02565   0.01496  -0.0307   1.0000   1.0000
  -2.500   0.0107   0.02596   0.01526  -0.0325   1.0000   0.9995
  -2.750  -0.0338   0.02699   0.01644  -0.0269   1.0000   0.9868
  -3.000  -0.0729   0.02799   0.01757  -0.0226   1.0000   0.9744
  -3.250  -0.1104   0.02895   0.01877  -0.0187   1.0000   0.9614
  -3.500  -0.1460   0.02990   0.01991  -0.0153   1.0000   0.9481
  -3.750  -0.1813   0.03086   0.02110  -0.0121   1.0000   0.9338
  -4.000  -0.2185   0.03183   0.02233  -0.0088   1.0000   0.9183
  -4.250  -0.5698   0.02097   0.01431   0.0198   1.0000   0.6549
  -4.500  -0.5513   0.02196   0.01329   0.0080   1.0000   0.3173
  -4.750  -0.5500   0.02428   0.01459   0.0034   1.0000   0.2341
  -5.000  -0.5606   0.02648   0.01636   0.0004   1.0000   0.1860
  -5.250  -0.5856   0.02921   0.01885  -0.0012   1.0000   0.1341
  -5.500  -0.6017   0.03142   0.02085  -0.0032   1.0000   0.0965
  -5.750  -0.6268   0.03389   0.02339  -0.0044   1.0000   0.0817
  -6.000  -0.6498   0.03672   0.02643  -0.0059   1.0000   0.0765
  -6.250  -0.6675   0.03954   0.02974  -0.0085   1.0000   0.0745
  -6.500  -0.6815   0.04251   0.03313  -0.0113   1.0000   0.0742
  -6.750  -0.6916   0.04560   0.03661  -0.0144   1.0000   0.0751
  -7.000  -0.7002   0.04877   0.04008  -0.0172   1.0000   0.0766
  -7.250  -0.7094   0.05274   0.04421  -0.0197   1.0000   0.0781
  -7.500  -0.7019   0.05533   0.04763  -0.0249   1.0000   0.0840
  -7.750  -0.7017   0.05915   0.05169  -0.0279   1.0000   0.0881
  -8.000  -0.6957   0.06268   0.05562  -0.0313   1.0000   0.0955
  -8.250  -0.6986   0.06736   0.06047  -0.0332   1.0000   0.1056
  -8.450  -0.6156   0.05947   0.05319  -0.0392   1.0000   0.1009
  -8.750  -0.6180   0.06692   0.06074  -0.0401   1.0000   0.1170
  -9.000  -0.5828   0.06960   0.06350  -0.0432   1.0000   0.1164
  -9.250  -0.5451   0.07300   0.06692  -0.0440   1.0000   0.1153
  -9.350  -0.5790   0.08854   0.08218  -0.0336   1.0000   0.1606
  -9.450  -0.5664   0.09136   0.08494  -0.0308   1.0000   0.1639
  -9.750  -0.5130   0.10889   0.10228  -0.0093   1.0000   0.3182
 -10.000  -0.5201   0.11271   0.10606  -0.0098   1.0000   0.3048
 -10.250  -0.5205   0.11611   0.10940  -0.0101   1.0000   0.2910
 -10.500  -0.5194   0.11932   0.11256  -0.0102   1.0000   0.2771
 -10.750  -0.5184   0.12264   0.11582  -0.0102   1.0000   0.2632
 -11.000  -0.5251   0.12644   0.11957  -0.0105   1.0000   0.2504
 -11.250  -0.5325   0.12996   0.12309  -0.0107   1.0000   0.2386
 -11.250  -0.5326   0.12996   0.12309  -0.0107   1.0000   0.2386
 -11.350  -0.5215   0.13077   0.12383  -0.0097   1.0000   0.2352
 -11.450  -0.5184   0.13163   0.12465  -0.0092   1.0000   0.2306
 -11.750  -0.5216   0.13612   0.12909  -0.0088   1.0000   0.2176
 -12.000  -0.5398   0.14129   0.13427  -0.0094   1.0000   0.2101
 -12.250  -0.5309   0.14337   0.13628  -0.0078   1.0000   0.2011
 -12.500  -0.5352   0.14741   0.14028  -0.0071   1.0000   0.1946
 -12.750  -0.5595   0.15360   0.14649  -0.0085   1.0000   0.1838
 -13.000  -0.5387   0.15416   0.14693  -0.0051   1.0000   0.1790
 -13.250  -0.5647   0.16073   0.15355  -0.0066   1.0000   0.1702
 -13.500  -0.5465   0.16111   0.15382  -0.0032   1.0000   0.1657
 -13.750  -0.5756   0.16838   0.16115  -0.0049   1.0000   0.1568
 -14.000  -0.5574   0.16824   0.16089  -0.0014   1.0000   0.1537
 -14.250  -0.5665   0.17197   0.16461  -0.0008   1.0000   0.1458
 -14.500  -0.5725   0.17606   0.16867   0.0003   1.0000   0.1424
 -14.750  -0.5699   0.17787   0.17043   0.0024   1.0000   0.1365
 -15.000  -0.5973   0.18621   0.17881   0.0011   1.0000   0.1305
 -15.250  -0.5846   0.18556   0.17806   0.0045   1.0000   0.1285
 -15.500  -0.5866   0.18789   0.18036   0.0065   1.0000   0.1233
 -15.750  -0.6029   0.19327   0.18588   0.0063   1.0000   0.1185
 -16.000  -0.6075   0.19702   0.18956   0.0080   1.0000   0.1163
 -16.250  -0.6057   0.19797   0.19047   0.0107   1.0000   0.1133
 -16.500  -0.6123   0.20095   0.19344   0.0122   1.0000   0.1088
 -16.750  -0.6375   0.21056   0.20309   0.0109   1.0000   0.1040
 -17.000  -0.6325   0.20999   0.20245   0.0140   1.0000   0.1033
 -17.250  -0.6317   0.21063   0.20303   0.0170   1.0000   0.0994
 -17.500  -0.6394   0.21379   0.20618   0.0184   1.0000   0.0955
 -17.750  -0.6661   0.22507   0.21753   0.0168   1.0000   0.0911
 -18.000  -0.6622   0.22396   0.21635   0.0200   1.0000   0.0906
 -18.250  -0.6610   0.22356   0.21589   0.0233   1.0000   0.0883
 -18.500  -0.6671   0.22604   0.21835   0.0253   1.0000   0.0852
 -18.750  -0.6761   0.22943   0.22174   0.0266   1.0000   0.0816
 -19.000  -0.6981   0.24036   0.23271   0.0255   1.0000   0.0784
 -19.250  -0.6977   0.23955   0.23185   0.0286   1.0000   0.0780
 -19.500  -0.6990   0.23934   0.23160   0.0317   1.0000   0.0768
 -19.750  -0.7045   0.24130   0.23354   0.0341   1.0000   0.0744
 -20.000  -0.7121   0.24418   0.23642   0.0360   1.0000   0.0718
