  
       XFOIL         Version 6.99
  
 Calculated polar for: HT22                                            
  
 1 1 Reynolds number fixed          Mach number fixed         
  
 xtrf =   1.000 (top)        1.000 (bottom)  
 Mach =   0.000     Re =     0.050 e 6     Ncrit =   9.000
  
   alpha    CL        CD       CDp       CM     Top_Xtr  Bot_Xtr
  ------ -------- --------- --------- -------- -------- --------
   0.000   0.0712   0.01350   0.00332  -0.0085   0.9968   1.0032
   0.250   0.0972   0.01353   0.00330  -0.0081   0.9968   1.0032
   0.500   0.1231   0.01357   0.00333  -0.0078   0.9968   1.0032
   0.750   0.1488   0.01363   0.00342  -0.0075   0.9968   1.0032
   1.000   0.1744   0.01371   0.00356  -0.0073   0.9968   1.0032
   1.250   0.1998   0.01381   0.00376  -0.0070   0.9968   1.0032
   1.500   0.2248   0.01394   0.00404  -0.0069   0.9968   1.0032
   1.750   0.2490   0.01415   0.00445  -0.0070   0.9968   1.0032
   2.000   0.2705   0.01456   0.00515  -0.0077   0.9968   1.0032
   2.250   0.3665   0.01531   0.00634  -0.0224   0.8953   1.0032
   2.500   0.4014   0.01588   0.00668  -0.0206   0.7823   1.0032
   2.750   0.4192   0.01665   0.00714  -0.0165   0.7053   1.0032
   3.000   0.4389   0.01747   0.00766  -0.0133   0.6380   1.0032
   3.250   0.4601   0.01834   0.00824  -0.0108   0.5767   1.0032
   3.500   0.4825   0.01924   0.00892  -0.0088   0.5156   1.0032
   3.750   0.5051   0.02020   0.00966  -0.0069   0.4557   1.0032
   4.000   0.5282   0.02124   0.01052  -0.0053   0.3959   1.0032
   4.250   0.5520   0.02238   0.01143  -0.0039   0.3387   1.0032
   4.500   0.5762   0.02361   0.01241  -0.0027   0.2901   1.0032
   4.750   0.6012   0.02495   0.01365  -0.0018   0.2487   1.0032
   5.000   0.6272   0.02672   0.01549  -0.0012   0.2204   1.0032
   5.250   0.6528   0.02848   0.01739  -0.0007   0.1958   1.0032
   5.500   0.6791   0.03091   0.02010  -0.0003   0.1814   1.0032
   5.750   0.7045   0.03351   0.02304  -0.0001   0.1688   1.0032
   6.000   0.7287   0.03625   0.02608   0.0000   0.1581   1.0032
   6.250   0.7523   0.04030   0.03080  -0.0005   0.1538   1.0032
   6.500   0.7741   0.04455   0.03553  -0.0010   0.1511   1.0032
   6.750   0.7931   0.04895   0.04027  -0.0018   0.1468   1.0032
   7.000   0.8080   0.05507   0.04700  -0.0042   0.1463   1.0032
   7.250   0.8245   0.06050   0.05263  -0.0052   0.1483   1.0032
   7.250   0.8245   0.06050   0.05263  -0.0052   0.1483   1.0032
   7.350   0.8139   0.07005   0.06288  -0.0154   0.1656   1.0032
   7.450   0.8263   0.06972   0.06241  -0.0117   0.1626   1.0032
   7.750   0.7637   0.09883   0.09177  -0.0594   0.3362   1.0032
   8.000   0.7670   0.10255   0.09547  -0.0595   0.3222   1.0032
   8.250   0.7689   0.10629   0.09918  -0.0599   0.3096   1.0032
   8.500   0.7812   0.11111   0.10401  -0.0596   0.3017   1.0032
   8.750   0.7850   0.11475   0.10765  -0.0600   0.2907   1.0032
   9.000   0.7772   0.11804   0.11087  -0.0618   0.2823   1.0032
   9.250   0.8005   0.12404   0.11698  -0.0603   0.2744   1.0032
   9.500   0.7851   0.12591   0.11873  -0.0629   0.2651   1.0032
   9.750   0.7904   0.13030   0.12315  -0.0634   0.2577   1.0032
  10.000   0.8083   0.13569   0.12859  -0.0622   0.2459   1.0032
  10.250   0.7938   0.13743   0.13025  -0.0650   0.2380   1.0032
  10.500   0.8041   0.14232   0.13515  -0.0650   0.2304   1.0032
  10.750   0.8033   0.14537   0.13819  -0.0663   0.2219   1.0032
  11.000   0.8137   0.15063   0.14347  -0.0665   0.2169   1.0032
  11.250   0.8082   0.15302   0.14582  -0.0687   0.2094   1.0032
  11.500   0.8292   0.15986   0.15272  -0.0675   0.2036   1.0032
  11.750   0.8154   0.16083   0.15362  -0.0710   0.1982   1.0032
  12.000   0.8408   0.16840   0.16126  -0.0692   0.1898   1.0032
  12.250   0.8256   0.16875   0.16153  -0.0731   0.1861   1.0032
  12.500   0.8540   0.17717   0.17008  -0.0707   0.1760   1.0032
  12.750   0.8379   0.17686   0.16968  -0.0752   0.1737   1.0032
  13.000   0.8402   0.17976   0.17259  -0.0770   0.1673   1.0032
  13.250   0.8655   0.18868   0.18158  -0.0752   0.1620   1.0032
  13.500   0.8534   0.18818   0.18100  -0.0795   0.1596   1.0032
  13.750   0.8567   0.19103   0.18386  -0.0815   0.1538   1.0032
  14.000   0.8826   0.20081   0.19371  -0.0795   0.1482   1.0032
  14.250   0.8720   0.19964   0.19247  -0.0840   0.1462   1.0032
  14.500   0.8754   0.20211   0.19494  -0.0863   0.1401   1.0032
  14.750   0.8991   0.21199   0.20490  -0.0844   0.1343   1.0032
  15.000   0.8920   0.21084   0.20368  -0.0888   0.1327   1.0032
  15.250   0.8955   0.21307   0.20590  -0.0916   0.1281   1.0032
  15.250   0.8955   0.21305   0.20589  -0.0916   0.1281   1.0032
  15.350   0.8988   0.21454   0.20739  -0.0922   0.1262   1.0032
  15.450   0.9030   0.21631   0.20920  -0.0925   0.1245   1.0032
  15.750   0.9243   0.22697   0.21992  -0.0917   0.1206   1.0032
  16.000   0.9205   0.22561   0.21850  -0.0962   0.1191   1.0032
  16.250   0.9249   0.22767   0.22055  -0.0991   0.1152   1.0032
  16.500   0.9343   0.23161   0.22453  -0.1004   0.1106   1.0032
  16.750   0.9522   0.24167   0.23463  -0.0993   0.1071   1.0032
  17.000   0.9506   0.23994   0.23285  -0.1040   0.1056   1.0032
  17.250   0.9560   0.24192   0.23483  -0.1071   0.1018   1.0032
  17.500   0.9647   0.24554   0.23847  -0.1089   0.0983   1.0032
  17.750   0.9772   0.25168   0.24466  -0.1091   0.0952   1.0032
  18.000   0.9898   0.25991   0.25293  -0.1097   0.0937   1.0032
  18.250   0.9912   0.25841   0.25139  -0.1142   0.0927   1.0032
  18.500   0.9970   0.25989   0.25287  -0.1177   0.0900   1.0032
  18.750   1.0052   0.26305   0.25604  -0.1200   0.0869   1.0032
  19.000   1.0150   0.26727   0.26029  -0.1214   0.0834   1.0032
  19.250   1.0326   0.28086   0.27393  -0.1196   0.0807   1.0032
  19.500   1.0340   0.27787   0.27090  -0.1244   0.0802   1.0032
  19.750   1.0393   0.27785   0.27087  -0.1285   0.0786   1.0032
  20.000   1.0471   0.28038   0.27341  -0.1314   0.0761   1.0032
   0.000   0.0712   0.01350   0.00332  -0.0085   0.9968   1.0032
  -0.250   0.0452   0.01349   0.00340  -0.0088   0.9968   1.0032
  -0.500   0.0191   0.01349   0.00352  -0.0092   0.9968   1.0032
  -0.750  -0.0070   0.01350   0.00370  -0.0096   0.9968   1.0032
  -1.000  -0.0331   0.01352   0.00396  -0.0100   0.9968   1.0032
  -1.250  -0.0593   0.01356   0.00428  -0.0104   0.9968   1.0032
  -1.500  -0.0856   0.01361   0.00470  -0.0109   0.9968   1.0032
  -1.750  -0.1124   0.01368   0.00537  -0.0115   0.9968   1.0032
  -2.000  -0.1482   0.01861   0.00734  -0.0132   0.9968   0.2233
  -2.250  -0.1768   0.02026   0.00890  -0.0141   0.9968   0.1834
  -2.500  -0.2047   0.02188   0.01052  -0.0150   0.9968   0.1596
  -2.750  -0.2333   0.02382   0.01252  -0.0157   0.9968   0.1485
  -3.000  -0.2616   0.02570   0.01457  -0.0162   0.9968   0.1366
  -3.250  -0.2912   0.02812   0.01737  -0.0166   0.9968   0.1346
  -3.500  -0.3212   0.03076   0.02052  -0.0169   0.9968   0.1344
  -3.750  -0.3509   0.03359   0.02390  -0.0168   0.9968   0.1337
  -4.000  -0.3837   0.03731   0.02841  -0.0160   0.9968   0.1461
  -4.250  -0.4184   0.04243   0.03420  -0.0141   0.9968   0.1776
  -4.250  -0.4374   0.05348   0.04734   0.0679   0.9968   0.7932
  -4.350  -0.4956   0.05779   0.05181   0.0680   0.9968   0.6973
  -5.000  -0.5591   0.06700   0.06104   0.0472   0.9968   0.4757
  -5.200  -0.5676   0.06934   0.06333   0.0420   0.9968   0.4310
  -5.500  -0.5790   0.07301   0.06692   0.0360   0.9968   0.3750
  -5.750  -0.5902   0.07627   0.07014   0.0324   0.9968   0.3401
  -5.850  -0.5924   0.07756   0.07143   0.0326   0.9968   0.3277
  -5.950  -0.5954   0.07901   0.07286   0.0323   0.9968   0.3172
  -6.250  -0.6060   0.08333   0.07712   0.0316   0.9968   0.2895
  -6.500  -0.6150   0.08686   0.08061   0.0314   0.9968   0.2689
  -6.750  -0.6266   0.09091   0.08463   0.0297   0.9968   0.2521
  -7.000  -0.6348   0.09483   0.08851   0.0300   0.9968   0.2373
  -7.250  -0.6355   0.09804   0.09165   0.0336   0.9968   0.2247
  -7.250  -0.6355   0.09804   0.09165   0.0336   0.9968   0.2247
  -7.350  -0.6433   0.10049   0.09410   0.0316   0.9968   0.2210
  -7.450  -0.6346   0.10081   0.09435   0.0354   0.9968   0.2176
  -7.750  -0.6427   0.10555   0.09903   0.0354   0.9968   0.2053
  -8.000  -0.6580   0.11060   0.10408   0.0333   0.9968   0.1926
  -8.250  -0.6434   0.11187   0.10522   0.0383   0.9968   0.1872
  -8.500  -0.6575   0.11696   0.11033   0.0368   0.9968   0.1776
  -8.750  -0.6499   0.11884   0.11210   0.0401   0.9968   0.1707
  -9.000  -0.6633   0.12410   0.11738   0.0388   0.9968   0.1632
  -9.250  -0.6563   0.12594   0.11914   0.0421   0.9968   0.1575
  -9.500  -0.6798   0.13312   0.12634   0.0389   0.9968   0.1497
  -9.750  -0.6671   0.13386   0.12699   0.0434   0.9968   0.1474
 -10.000  -0.6674   0.13665   0.12973   0.0452   0.9968   0.1417
 -10.250  -0.6925   0.14473   0.13785   0.0420   0.9968   0.1355
 -10.500  -0.6815   0.14532   0.13835   0.0461   0.9968   0.1341
 -10.750  -0.6790   0.14743   0.14042   0.0486   0.9968   0.1298
 -11.000  -0.6868   0.15139   0.14437   0.0490   0.9968   0.1246
 -11.250  -0.7045   0.15877   0.15175   0.0476   0.9968   0.1210
 -11.500  -0.6970   0.15936   0.15228   0.0512   0.9968   0.1195
 -11.750  -0.6971   0.16163   0.15451   0.0534   0.9968   0.1158
 -12.000  -0.7034   0.16523   0.15810   0.0543   0.9968   0.1115
 -12.250  -0.7307   0.17570   0.16865   0.0513   0.9968   0.1071
 -12.500  -0.7240   0.17584   0.16872   0.0548   0.9968   0.1065
 -12.750  -0.7208   0.17658   0.16941   0.0580   0.9968   0.1048
 -13.000  -0.7238   0.17903   0.17184   0.0600   0.9968   0.1015
 -13.250  -0.7305   0.18250   0.17530   0.0611   0.9968   0.0978
 -13.500  -0.7588   0.19476   0.18761   0.0580   0.9968   0.0930
 -13.750  -0.7542   0.19441   0.18720   0.0614   0.9968   0.0926
 -14.000  -0.7521   0.19433   0.18708   0.0647   0.9968   0.0914
 -14.250  -0.7554   0.19615   0.18888   0.0671   0.9968   0.0886
 -14.500  -0.7619   0.19921   0.19193   0.0687   0.9968   0.0854
 -14.750  -0.7704   0.20305   0.19577   0.0697   0.9968   0.0824
 -15.000  -0.7991   0.21814   0.21095   0.0666   0.9968   0.0791
 -15.250  -0.7971   0.21742   0.21019   0.0698   0.9968   0.0788
 -15.500  -0.7968   0.21686   0.20959   0.0730   0.9968   0.0783
 -15.750  -0.7998   0.21739   0.21009   0.0760   0.9968   0.0772
 -16.000  -0.8058   0.21947   0.21216   0.0785   0.9968   0.0752
 -16.250  -0.8131   0.22239   0.21507   0.0804   0.9968   0.0730
 -16.500  -0.8210   0.22561   0.21829   0.0821   0.9968   0.0709
 -16.750  -0.8295   0.22919   0.22187   0.0835   0.9968   0.0690
 -17.000  -0.8395   0.23401   0.22671   0.0842   0.9968   0.0670
 -17.250  -0.8612   0.24957   0.24230   0.0823   0.9968   0.0653
 -17.500  -0.8623   0.24811   0.24081   0.0855   0.9968   0.0651
 -17.750  -0.8652   0.24723   0.23991   0.0888   0.9968   0.0647
 -18.000  -0.8703   0.24741   0.24007   0.0919   0.9968   0.0640
 -18.250  -0.8771   0.24895   0.24163   0.0946   0.9968   0.0628
 -18.500  -0.8849   0.25146   0.24415   0.0969   0.9968   0.0612
 -18.750  -0.8930   0.25437   0.24706   0.0990   0.9968   0.0597
 -19.000  -0.9013   0.25744   0.25013   0.1009   0.9968   0.0581
 -19.250  -0.9097   0.26067   0.25337   0.1027   0.9968   0.0565
 -19.500  -0.9183   0.26422   0.25693   0.1043   0.9968   0.0550
 -19.750  -0.9278   0.26955   0.26228   0.1051   0.9968   0.0534
 -19.750  -0.9278   0.26955   0.26229   0.1051   0.9968   0.0534
 -19.850  -0.9326   0.27329   0.26604   0.1050   0.9968   0.0529
