  
       XFOIL         Version 6.99
  
 Calculated polar for: S9032 (9%)                                      
  
 1 1 Reynolds number fixed          Mach number fixed         
  
 xtrf =   1.000 (top)        1.000 (bottom)  
 Mach =   0.000     Re =     0.050 e 6     Ncrit =   9.000
  
   alpha    CL        CD       CDp       CM     Top_Xtr  Bot_Xtr
  ------ -------- --------- --------- -------- -------- --------
   0.000  -0.0000   0.01565   0.00598  -0.0000   1.0000   1.0000
   0.250   0.0087   0.01570   0.00602   0.0025   1.0000   1.0000
   0.500   0.0167   0.01583   0.00615   0.0050   1.0000   1.0000
   0.750   0.0245   0.01606   0.00638   0.0074   1.0000   1.0000
   1.000   0.0325   0.01640   0.00670   0.0095   1.0000   1.0000
   1.250   0.0409   0.01683   0.00714   0.0112   1.0000   1.0000
   1.500   0.0495   0.01739   0.00771   0.0125   1.0000   1.0000
   1.750   0.0706   0.01817   0.00854   0.0110   0.9948   1.0000
   2.000   0.1866   0.01910   0.00986  -0.0067   0.9446   1.0000
   2.250   0.3042   0.01882   0.01008  -0.0217   0.8878   1.0000
   2.500   0.3638   0.01850   0.00994  -0.0246   0.8288   1.0000
   2.750   0.3912   0.01854   0.00997  -0.0218   0.7724   1.0000
   3.000   0.4105   0.01876   0.01005  -0.0177   0.7182   1.0000
   3.250   0.4280   0.01912   0.01026  -0.0138   0.6625   1.0000
   3.500   0.4462   0.01957   0.01053  -0.0103   0.6074   1.0000
   3.750   0.4659   0.02010   0.01080  -0.0073   0.5541   1.0000
   4.000   0.4857   0.02079   0.01130  -0.0048   0.4995   1.0000
   4.250   0.5061   0.02157   0.01178  -0.0024   0.4496   1.0000
   4.500   0.5269   0.02251   0.01254  -0.0005   0.4014   1.0000
   4.750   0.5483   0.02353   0.01338   0.0013   0.3590   1.0000
   5.000   0.5700   0.02468   0.01442   0.0028   0.3210   1.0000
   5.250   0.5924   0.02597   0.01556   0.0042   0.2894   1.0000
   5.500   0.6147   0.02743   0.01705   0.0054   0.2617   1.0000
   5.750   0.6370   0.02913   0.01887   0.0066   0.2387   1.0000
   6.000   0.6592   0.03082   0.02062   0.0077   0.2184   1.0000
   6.250   0.6812   0.03270   0.02252   0.0087   0.2015   1.0000
   6.500   0.7022   0.03483   0.02480   0.0098   0.1867   1.0000
   6.750   0.7206   0.03744   0.02784   0.0108   0.1747   1.0000
   7.000   0.7364   0.04052   0.03136   0.0118   0.1647   1.0000
   7.250   0.7573   0.04323   0.03401   0.0127   0.1572   1.0000
   7.500   0.7625   0.04783   0.03945   0.0134   0.1531   1.0000
   7.750   0.7685   0.05218   0.04424   0.0137   0.1489   1.0000
   8.000   0.7671   0.05779   0.05027   0.0133   0.1488   1.0000
   8.250   0.7566   0.06454   0.05735   0.0116   0.1521   1.0000
   8.500   0.7509   0.07061   0.06355   0.0101   0.1552   1.0000
   8.750   0.7570   0.07591   0.06889   0.0096   0.1572   1.0000
   8.750   0.7556   0.07602   0.06903   0.0094   0.1577   1.0000
   9.250   0.6064   0.10902   0.10165  -0.0286   0.3299   1.0000
   9.500   0.6197   0.11327   0.10592  -0.0282   0.3165   1.0000
   9.250   0.6064   0.10902   0.10165  -0.0286   0.3299   1.0000
   9.350   0.6002   0.10974   0.10232  -0.0290   0.3242   1.0000
   9.450   0.6270   0.11312   0.10581  -0.0276   0.3171   1.0000
   9.750   0.6355   0.11781   0.11049  -0.0276   0.3026   1.0000
  10.000   0.6124   0.11910   0.11167  -0.0297   0.2937   1.0000
  10.250   0.6290   0.12426   0.11686  -0.0295   0.2869   1.0000
  10.500   0.6236   0.12676   0.11932  -0.0307   0.2769   1.0000
  10.750   0.6277   0.13083   0.12338  -0.0314   0.2704   1.0000
  11.000   0.6522   0.13657   0.12918  -0.0304   0.2584   1.0000
  11.250   0.6325   0.13753   0.13004  -0.0330   0.2506   1.0000
  11.500   0.6471   0.14251   0.13505  -0.0329   0.2425   1.0000
  11.750   0.6439   0.14497   0.13747  -0.0343   0.2339   1.0000
  12.000   0.6610   0.15072   0.14326  -0.0343   0.2286   1.0000
  12.250   0.6511   0.15223   0.14471  -0.0366   0.2213   1.0000
  12.500   0.6768   0.15919   0.15176  -0.0357   0.2146   1.0000
  12.750   0.6609   0.15959   0.15208  -0.0387   0.2089   1.0000
  13.000   0.6865   0.16657   0.15913  -0.0377   0.2001   1.0000
  13.250   0.6722   0.16679   0.15927  -0.0409   0.1952   1.0000
  13.500   0.6903   0.17217   0.16471  -0.0406   0.1873   1.0000
  13.750   0.6908   0.17548   0.16798  -0.0425   0.1845   1.0000
  14.000   0.6894   0.17740   0.16987  -0.0447   0.1781   1.0000
  14.250   0.7210   0.18696   0.17951  -0.0431   0.1716   1.0000
  14.500   0.7051   0.18549   0.17795  -0.0470   0.1691   1.0000
  14.750   0.7092   0.18807   0.18053  -0.0487   0.1624   1.0000
  15.000   0.7308   0.19587   0.18840  -0.0480   0.1569   1.0000
  15.250   0.7225   0.19532   0.18779  -0.0516   0.1534   1.0000
  15.500   0.7296   0.19853   0.19099  -0.0531   0.1479   1.0000
  15.750   0.7597   0.20968   0.20222  -0.0514   0.1431   1.0000
  16.000   0.7483   0.20736   0.19982  -0.0555   0.1417   1.0000
  16.250   0.7499   0.20885   0.20129  -0.0583   0.1369   1.0000
  16.500   0.7631   0.21361   0.20608  -0.0586   0.1310   1.0000
  16.750   0.7753   0.21969   0.21216  -0.0595   0.1285   1.0000
  17.000   0.7728   0.21929   0.21170  -0.0631   0.1251   1.0000
  17.250   0.7803   0.22231   0.21474  -0.0649   0.1206   1.0000
  17.500   0.7939   0.22763   0.22008  -0.0653   0.1168   1.0000
  17.750   0.8086   0.23530   0.22778  -0.0658   0.1149   1.0000
  18.000   0.8059   0.23376   0.22620  -0.0698   0.1133   1.0000
  18.250   0.8109   0.23566   0.22808  -0.0723   0.1097   1.0000
  18.500   0.8200   0.23910   0.23153  -0.0739   0.1055   1.0000
  18.750   0.8401   0.24884   0.24134  -0.0728   0.1019   1.0000
  19.000   0.8429   0.25018   0.24262  -0.0757   0.1009   1.0000
  19.250   0.8440   0.24945   0.24185  -0.0794   0.0990   1.0000
  19.500   0.8507   0.25177   0.24417  -0.0819   0.0958   1.0000
  19.750   0.8593   0.25503   0.24744  -0.0836   0.0927   1.0000
  20.000   0.8700   0.25939   0.25182  -0.0847   0.0901   1.0000
   0.000  -0.0000   0.01565   0.00598  -0.0000   1.0000   1.0000
  -0.250  -0.0087   0.01570   0.00602  -0.0025   1.0000   1.0000
  -0.500  -0.0167   0.01583   0.00615  -0.0050   1.0000   1.0000
  -0.750  -0.0244   0.01607   0.00638  -0.0074   1.0000   1.0000
  -1.000  -0.0325   0.01640   0.00670  -0.0095   1.0000   1.0000
  -1.250  -0.0409   0.01684   0.00714  -0.0112   1.0000   1.0000
  -1.500  -0.0494   0.01739   0.00771  -0.0125   1.0000   1.0000
  -1.750  -0.0707   0.01818   0.00855  -0.0110   1.0000   0.9947
  -2.000  -0.1865   0.01911   0.00986   0.0067   1.0000   0.9446
  -2.250  -0.3042   0.01883   0.01008   0.0217   1.0000   0.8878
  -2.500  -0.3639   0.01850   0.00996   0.0246   1.0000   0.8286
  -2.750  -0.3913   0.01854   0.00997   0.0218   1.0000   0.7724
  -3.000  -0.4106   0.01876   0.01005   0.0177   1.0000   0.7181
  -3.250  -0.4281   0.01912   0.01026   0.0138   1.0000   0.6623
  -3.500  -0.4464   0.01957   0.01053   0.0104   1.0000   0.6073
  -3.750  -0.4660   0.02010   0.01080   0.0073   1.0000   0.5540
  -4.000  -0.4858   0.02079   0.01130   0.0048   1.0000   0.4993
  -4.250  -0.5062   0.02157   0.01178   0.0024   1.0000   0.4495
  -4.500  -0.5270   0.02251   0.01255   0.0005   1.0000   0.4014
  -4.750  -0.5484   0.02353   0.01339  -0.0013   1.0000   0.3590
  -5.000  -0.5701   0.02468   0.01442  -0.0028   1.0000   0.3209
  -5.250  -0.5924   0.02597   0.01557  -0.0042   1.0000   0.2894
  -5.500  -0.6147   0.02743   0.01704  -0.0054   1.0000   0.2616
  -5.750  -0.6370   0.02913   0.01887  -0.0066   1.0000   0.2386
  -6.000  -0.6591   0.03082   0.02062  -0.0077   1.0000   0.2184
  -6.250  -0.6812   0.03270   0.02252  -0.0087   1.0000   0.2015
  -6.500  -0.7022   0.03483   0.02480  -0.0098   1.0000   0.1867
  -6.750  -0.7206   0.03740   0.02779  -0.0109   1.0000   0.1745
  -7.000  -0.7362   0.04051   0.03135  -0.0119   1.0000   0.1647
  -7.250  -0.7572   0.04322   0.03400  -0.0127   1.0000   0.1573
  -7.500  -0.7623   0.04781   0.03943  -0.0134   1.0000   0.1532
  -7.750  -0.7682   0.05216   0.04423  -0.0138   1.0000   0.1489
  -8.000  -0.7667   0.05775   0.05024  -0.0134   1.0000   0.1489
  -8.250  -0.7563   0.06447   0.05728  -0.0118   1.0000   0.1521
  -8.500  -0.7501   0.07059   0.06354  -0.0102   1.0000   0.1551
  -8.750  -0.7567   0.07582   0.06880  -0.0098   1.0000   0.1572
  -9.250  -0.6092   0.10926   0.10190   0.0284   1.0000   0.3306
  -9.500  -0.6198   0.11330   0.10596   0.0280   1.0000   0.3166
  -9.750  -0.6317   0.11738   0.11007   0.0275   1.0000   0.3028
  -9.500  -0.6198   0.11330   0.10596   0.0280   1.0000   0.3166
  -9.600  -0.6067   0.11364   0.10623   0.0290   1.0000   0.3138
  -9.700  -0.6079   0.11477   0.10736   0.0290   1.0000   0.3071
 -10.000  -0.6111   0.11904   0.11160   0.0295   1.0000   0.2940
 -10.250  -0.6296   0.12433   0.11693   0.0293   1.0000   0.2871
 -10.500  -0.6220   0.12666   0.11921   0.0305   1.0000   0.2771
 -10.750  -0.6268   0.13080   0.12334   0.0312   1.0000   0.2705
 -11.000  -0.6517   0.13655   0.12916   0.0302   1.0000   0.2584
 -11.250  -0.6310   0.13747   0.12999   0.0328   1.0000   0.2516
 -11.500  -0.6477   0.14263   0.13517   0.0326   1.0000   0.2428
 -11.750  -0.6422   0.14483   0.13733   0.0342   1.0000   0.2342
 -12.250  -0.6498   0.15212   0.14460   0.0364   1.0000   0.2216
 -12.500  -0.6774   0.15933   0.15191   0.0353   1.0000   0.2147
 -12.750  -0.6599   0.15949   0.15198   0.0385   1.0000   0.2093
 -13.000  -0.6869   0.16670   0.15927   0.0374   1.0000   0.2002
 -12.750  -0.6599   0.15949   0.15198   0.0385   1.0000   0.2093
 -12.850  -0.6632   0.16089   0.15339   0.0387   1.0000   0.2055
 -12.950  -0.6899   0.16662   0.15920   0.0367   1.0000   0.2003
 -13.250  -0.6709   0.16665   0.15914   0.0406   1.0000   0.1951
 -13.500  -0.6884   0.17190   0.16443   0.0404   1.0000   0.1874
 -13.750  -0.6897   0.17537   0.16786   0.0423   1.0000   0.1845
 -14.000  -0.6881   0.17722   0.16969   0.0444   1.0000   0.1783
 -14.250  -0.7205   0.18692   0.17948   0.0428   1.0000   0.1716
 -14.500  -0.7048   0.18548   0.17795   0.0466   1.0000   0.1695
 -14.750  -0.7078   0.18785   0.18031   0.0485   1.0000   0.1626
 -15.000  -0.7298   0.19569   0.18822   0.0478   1.0000   0.1569
 -15.250  -0.7215   0.19510   0.18757   0.0514   1.0000   0.1534
 -15.500  -0.7286   0.19832   0.19079   0.0529   1.0000   0.1478
 -15.750  -0.7584   0.20937   0.20191   0.0512   1.0000   0.1431
 -16.000  -0.7478   0.20725   0.19972   0.0552   1.0000   0.1418
 -16.250  -0.7487   0.20853   0.20097   0.0580   1.0000   0.1368
 -16.500  -0.7611   0.21298   0.20545   0.0586   1.0000   0.1313
 -16.750  -0.7744   0.21940   0.21187   0.0592   1.0000   0.1285
 -17.000  -0.7721   0.21900   0.21143   0.0628   1.0000   0.1255
 -17.250  -0.7791   0.22189   0.21431   0.0647   1.0000   0.1207
 -17.500  -0.7925   0.22706   0.21951   0.0651   1.0000   0.1168
 -17.750  -0.8080   0.23498   0.22747   0.0655   1.0000   0.1149
 -18.000  -0.8051   0.23338   0.22581   0.0694   1.0000   0.1134
 -18.250  -0.8098   0.23512   0.22754   0.0721   1.0000   0.1098
 -18.500  -0.8186   0.23844   0.23087   0.0736   1.0000   0.1058
 -18.750  -0.8388   0.24801   0.24051   0.0727   1.0000   0.1019
 -19.000  -0.8421   0.24964   0.24209   0.0755   1.0000   0.1009
 -19.250  -0.8430   0.24882   0.24122   0.0792   1.0000   0.0990
 -19.500  -0.8497   0.25106   0.24346   0.0816   1.0000   0.0958
 -19.750  -0.8582   0.25421   0.24662   0.0834   1.0000   0.0928
 -20.000  -0.8690   0.25854   0.25097   0.0845   1.0000   0.0901
