  
       XFOIL         Version 6.99
  
 Calculated polar for: E10(08%)                                        
  
 1 1 Reynolds number fixed          Mach number fixed         
  
 xtrf =   1.000 (top)        1.000 (bottom)  
 Mach =   0.000     Re =     0.050 e 6     Ncrit =   9.000
  
   alpha    CL        CD       CDp       CM     Top_Xtr  Bot_Xtr
  ------ -------- --------- --------- -------- -------- --------
   0.000  -0.0323   0.01834   0.00822   0.0042   1.0000   1.0000
   0.250  -0.0323   0.01859   0.00840   0.0073   1.0000   1.0000
   0.500  -0.0294   0.01891   0.00865   0.0099   1.0000   1.0000
   0.750  -0.0244   0.01929   0.00897   0.0122   1.0000   1.0000
   1.000  -0.0177   0.01973   0.00937   0.0140   1.0000   1.0000
   1.250  -0.0096   0.02025   0.00985   0.0155   1.0000   1.0000
   1.500   0.0646   0.02143   0.01113   0.0047   0.9763   1.0000
   1.750   0.1367   0.02241   0.01225  -0.0051   0.9514   1.0000
   2.000   0.2107   0.02314   0.01320  -0.0146   0.9255   1.0000
   2.250   0.2934   0.02352   0.01389  -0.0248   0.8986   1.0000
   2.500   0.3587   0.02357   0.01421  -0.0310   0.8697   1.0000
   2.750   0.4067   0.02357   0.01441  -0.0335   0.8398   1.0000
   3.000   0.4423   0.02355   0.01459  -0.0333   0.8097   1.0000
   3.250   0.4702   0.02354   0.01471  -0.0315   0.7795   1.0000
   3.500   0.4937   0.02351   0.01478  -0.0288   0.7492   1.0000
   3.750   0.5148   0.02346   0.01481  -0.0255   0.7186   1.0000
   4.000   0.5351   0.02335   0.01479  -0.0219   0.6872   1.0000
   4.250   0.5546   0.02325   0.01471  -0.0181   0.6547   1.0000
   4.500   0.5727   0.02330   0.01480  -0.0146   0.6180   1.0000
   4.750   0.5918   0.02330   0.01476  -0.0110   0.5802   1.0000
   5.000   0.6110   0.02336   0.01477  -0.0075   0.5397   1.0000
   5.250   0.6293   0.02363   0.01496  -0.0043   0.4944   1.0000
   5.500   0.6475   0.02403   0.01521  -0.0012   0.4459   1.0000
   5.750   0.6655   0.02464   0.01558   0.0016   0.3956   1.0000
   6.000   0.6828   0.02552   0.01624   0.0043   0.3442   1.0000
   6.250   0.7001   0.02671   0.01718   0.0066   0.2960   1.0000
   6.500   0.7174   0.02813   0.01846   0.0088   0.2527   1.0000
   6.750   0.7354   0.02974   0.01989   0.0107   0.2161   1.0000
   7.000   0.7546   0.03177   0.02184   0.0123   0.1874   1.0000
   7.250   0.7719   0.03398   0.02421   0.0141   0.1636   1.0000
   7.500   0.7915   0.03641   0.02655   0.0154   0.1451   1.0000
   7.750   0.8087   0.03924   0.02957   0.0169   0.1313   1.0000
   8.000   0.8193   0.04249   0.03345   0.0189   0.1221   1.0000
   8.250   0.8305   0.04582   0.03710   0.0204   0.1141   1.0000
   8.500   0.8343   0.05007   0.04191   0.0222   0.1113   1.0000
   8.750   0.8377   0.05397   0.04615   0.0237   0.1078   1.0000
   9.000   0.8468   0.05767   0.04987   0.0247   0.1029   1.0000
   9.250   0.8378   0.06228   0.05488   0.0259   0.1026   1.0000
   9.500   0.8267   0.06701   0.05987   0.0266   0.1028   1.0000
   9.750   0.8151   0.07189   0.06492   0.0269   0.1033   1.0000
   9.750   0.8151   0.07189   0.06492   0.0269   0.1033   1.0000
   9.850   0.8110   0.07386   0.06693   0.0269   0.1035   1.0000
   9.950   0.8064   0.07581   0.06895   0.0268   0.1042   1.0000
  10.250   0.5976   0.11585   0.10854  -0.0166   0.3047   1.0000
  10.500   0.6037   0.12016   0.11286  -0.0169   0.2957   1.0000
  10.750   0.6102   0.12427   0.11698  -0.0172   0.2867   1.0000
  11.000   0.6110   0.12880   0.12148  -0.0182   0.2827   1.0000
  11.250   0.6274   0.13391   0.12667  -0.0177   0.2701   1.0000
  11.500   0.6095   0.13569   0.12835  -0.0198   0.2631   1.0000
  11.750   0.6168   0.13991   0.13257  -0.0201   0.2531   1.0000
  12.000   0.6341   0.14510   0.13782  -0.0197   0.2430   1.0000
  12.250   0.6220   0.14750   0.14012  -0.0219   0.2380   1.0000
  12.500   0.6466   0.15392   0.14660  -0.0210   0.2278   1.0000
  12.750   0.6288   0.15477   0.14736  -0.0237   0.2219   1.0000
  13.000   0.6465   0.16034   0.15296  -0.0234   0.2131   1.0000
  13.250   0.6407   0.16224   0.15481  -0.0252   0.2042   1.0000
  13.500   0.6580   0.16833   0.16092  -0.0252   0.1993   1.0000
  13.750   0.6482   0.16943   0.16196  -0.0277   0.1931   1.0000
  14.000   0.6798   0.17809   0.17070  -0.0263   0.1860   1.0000
  14.250   0.6607   0.17718   0.16968  -0.0299   0.1825   1.0000
  14.500   0.6690   0.18072   0.17323  -0.0308   0.1752   1.0000
  14.750   0.6786   0.18554   0.17804  -0.0317   0.1708   1.0000
  15.000   0.6773   0.18729   0.17975  -0.0339   0.1643   1.0000
  15.250   0.7011   0.19513   0.18767  -0.0330   0.1580   1.0000
  15.500   0.6911   0.19467   0.18714  -0.0366   0.1547   1.0000
  15.750   0.6977   0.19784   0.19031  -0.0380   0.1490   1.0000
  16.000   0.7247   0.20748   0.20000  -0.0367   0.1445   1.0000
  16.250   0.7140   0.20596   0.19840  -0.0406   0.1426   1.0000
  16.500   0.7171   0.20809   0.20051  -0.0429   0.1378   1.0000
  16.750   0.7283   0.21224   0.20467  -0.0437   0.1334   1.0000
  17.000   0.7459   0.22007   0.21252  -0.0437   0.1306   1.0000
  17.250   0.7408   0.21908   0.21147  -0.0474   0.1283   1.0000
  17.500   0.7461   0.22155   0.21393  -0.0495   0.1234   1.0000
  17.750   0.7607   0.22694   0.21936  -0.0497   0.1187   1.0000
  18.000   0.7706   0.23221   0.22460  -0.0510   0.1167   1.0000
  18.250   0.7691   0.23177   0.22412  -0.0546   0.1135   1.0000
  18.500   0.7766   0.23468   0.22703  -0.0564   0.1092   1.0000
  18.750   0.7891   0.23950   0.23191  -0.0570   0.1056   1.0000
  19.000   0.8044   0.24762   0.24005  -0.0573   0.1037   1.0000
  19.250   0.8030   0.24624   0.23861  -0.0611   0.1025   1.0000
  19.500   0.8074   0.24775   0.24010  -0.0639   0.0995   1.0000
  19.750   0.8153   0.25073   0.24309  -0.0658   0.0963   1.0000
  20.000   0.8252   0.25463   0.24700  -0.0670   0.0933   1.0000
   0.000  -0.0323   0.01834   0.00822   0.0042   1.0000   1.0000
  -0.250  -0.0283   0.01816   0.00810   0.0004   1.0000   1.0000
  -0.500  -0.0205   0.01804   0.00803  -0.0040   1.0000   1.0000
  -0.750  -0.0111   0.01799   0.00802  -0.0087   1.0000   1.0000
  -1.000  -0.0045   0.01804   0.00806  -0.0128   1.0000   1.0000
  -1.250  -0.0033   0.01821   0.00821  -0.0159   1.0000   1.0000
  -1.500  -0.0080   0.01851   0.00850  -0.0179   1.0000   1.0000
  -1.750  -0.0161   0.01894   0.00893  -0.0192   1.0000   1.0000
  -2.000  -0.0259   0.01949   0.00950  -0.0200   1.0000   1.0000
  -2.250  -0.0708   0.02055   0.01072  -0.0142   1.0000   0.9858
  -2.500  -0.1596   0.02169   0.01217  -0.0014   1.0000   0.9496
  -2.750  -0.2554   0.02213   0.01308   0.0112   1.0000   0.9103
  -3.000  -0.3596   0.02163   0.01313   0.0232   1.0000   0.8654
  -3.250  -0.4302   0.02084   0.01276   0.0276   1.0000   0.8158
  -3.500  -0.4676   0.02044   0.01249   0.0263   1.0000   0.7652
  -3.750  -0.4925   0.02032   0.01242   0.0231   1.0000   0.7139
  -4.000  -0.5119   0.02046   0.01250   0.0194   1.0000   0.6606
  -4.250  -0.5302   0.02074   0.01265   0.0158   1.0000   0.6062
  -4.500  -0.5475   0.02118   0.01291   0.0122   1.0000   0.5494
  -4.750  -0.5640   0.02177   0.01329   0.0088   1.0000   0.4907
  -5.000  -0.5800   0.02251   0.01377   0.0056   1.0000   0.4297
  -5.250  -0.5956   0.02343   0.01435   0.0025   1.0000   0.3669
  -5.500  -0.6095   0.02460   0.01520  -0.0005   1.0000   0.2994
  -5.750  -0.6229   0.02602   0.01622  -0.0033   1.0000   0.2342
  -6.000  -0.6396   0.02781   0.01763  -0.0054   1.0000   0.1841
  -6.250  -0.6616   0.03017   0.01980  -0.0068   1.0000   0.1547
  -6.500  -0.6828   0.03249   0.02240  -0.0083   1.0000   0.1369
  -6.750  -0.7042   0.03501   0.02510  -0.0095   1.0000   0.1251
  -7.000  -0.7234   0.03811   0.02872  -0.0110   1.0000   0.1193
  -7.250  -0.7442   0.04134   0.03195  -0.0118   1.0000   0.1139
  -7.500  -0.7537   0.04484   0.03621  -0.0138   1.0000   0.1107
  -7.750  -0.7613   0.04869   0.04061  -0.0154   1.0000   0.1081
  -8.000  -0.7652   0.05319   0.04559  -0.0167   1.0000   0.1083
  -8.250  -0.7647   0.05810   0.05089  -0.0176   1.0000   0.1099
  -8.500  -0.7640   0.06306   0.05609  -0.0181   1.0000   0.1118
  -8.750  -0.7716   0.06814   0.06123  -0.0183   1.0000   0.1136
  -9.000  -0.7125   0.07588   0.06946  -0.0151   1.0000   0.1218
  -9.250  -0.7054   0.08132   0.07489  -0.0141   1.0000   0.1257
  -9.500  -0.6620   0.09181   0.08529  -0.0039   1.0000   0.1379
  -9.750  -0.5845   0.11281   0.10597   0.0215   1.0000   0.2902
 -10.000  -0.5916   0.11706   0.11022   0.0222   1.0000   0.2847
 -10.250  -0.5940   0.12131   0.11443   0.0232   1.0000   0.2792
 -10.500  -0.6118   0.12631   0.11946   0.0226   1.0000   0.2670
 -10.750  -0.5979   0.12834   0.12141   0.0246   1.0000   0.2580
 -11.000  -0.6034   0.13253   0.12558   0.0253   1.0000   0.2501
 -11.250  -0.6131   0.13662   0.12968   0.0256   1.0000   0.2412
 -11.500  -0.6114   0.14030   0.13331   0.0272   1.0000   0.2361
 -11.750  -0.6182   0.14408   0.13709   0.0278   1.0000   0.2277
 -12.000  -0.6227   0.14839   0.14137   0.0290   1.0000   0.2229
 -12.250  -0.6249   0.15149   0.14446   0.0302   1.0000   0.2143
 -12.500  -0.6334   0.15613   0.14911   0.0311   1.0000   0.2092
 -12.750  -0.6407   0.15966   0.15265   0.0317   1.0000   0.1986
 -13.000  -0.6411   0.16311   0.15605   0.0335   1.0000   0.1945
 -13.250  -0.6480   0.16654   0.15948   0.0344   1.0000   0.1854
 -13.500  -0.6574   0.17143   0.16436   0.0354   1.0000   0.1816
 -13.750  -0.6533   0.17311   0.16599   0.0379   1.0000   0.1752
 -14.000  -0.6858   0.18239   0.17534   0.0363   1.0000   0.1688
 -14.250  -0.6697   0.18136   0.17422   0.0402   1.0000   0.1666
 -14.500  -0.6725   0.18389   0.17673   0.0422   1.0000   0.1604
 -14.750  -0.7023   0.19341   0.18631   0.0409   1.0000   0.1549
 -15.000  -0.6889   0.19197   0.18479   0.0448   1.0000   0.1527
 -15.250  -0.6929   0.19443   0.18723   0.0468   1.0000   0.1463
 -15.500  -0.7176   0.20316   0.19601   0.0459   1.0000   0.1409
 -15.750  -0.7091   0.20209   0.19487   0.0498   1.0000   0.1385
 -15.750  -0.7091   0.20210   0.19487   0.0498   1.0000   0.1385
 -15.850  -0.7097   0.20276   0.19552   0.0509   1.0000   0.1362
 -15.950  -0.7124   0.20395   0.19671   0.0516   1.0000   0.1339
 -16.250  -0.7448   0.21610   0.20897   0.0500   1.0000   0.1274
 -16.500  -0.7366   0.21421   0.20701   0.0539   1.0000   0.1264
 -16.750  -0.7367   0.21500   0.20775   0.0571   1.0000   0.1226
 -17.000  -0.7451   0.21828   0.21104   0.0588   1.0000   0.1183
 -17.250  -0.7626   0.22508   0.21788   0.0586   1.0000   0.1146
 -17.500  -0.7702   0.22936   0.22213   0.0606   1.0000   0.1132
 -17.750  -0.7693   0.22891   0.22162   0.0642   1.0000   0.1110
 -18.000  -0.7757   0.23140   0.22411   0.0665   1.0000   0.1073
 -18.250  -0.7855   0.23504   0.22775   0.0680   1.0000   0.1038
 -18.500  -0.8125   0.24861   0.24139   0.0662   1.0000   0.1003
 -18.750  -0.8085   0.24571   0.23842   0.0703   1.0000   0.0997
 -19.000  -0.8094   0.24506   0.23773   0.0740   1.0000   0.0976
 -19.250  -0.8164   0.24746   0.24013   0.0763   1.0000   0.0941
 -19.500  -0.8259   0.25088   0.24355   0.0780   1.0000   0.0907
 -19.750  -0.8518   0.26590   0.25868   0.0760   1.0000   0.0871
 -20.000  -0.8499   0.26282   0.25555   0.0799   1.0000   0.0866
