  
       XFOIL         Version 6.99
  
 Calculated polar for: HT12                                            
  
 1 1 Reynolds number fixed          Mach number fixed         
  
 xtrf =   1.000 (top)        1.000 (bottom)  
 Mach =   0.000     Re =     0.050 e 6     Ncrit =   9.000
  
   alpha    CL        CD       CDp       CM     Top_Xtr  Bot_Xtr
  ------ -------- --------- --------- -------- -------- --------
   0.000  -0.0000   0.01341   0.00279   0.0000   0.9967   1.0033
   0.250   0.0264   0.01341   0.00281   0.0003   0.9967   1.0033
   0.500   0.0528   0.01343   0.00287   0.0006   0.9967   1.0033
   0.750   0.0792   0.01346   0.00299   0.0009   0.9967   1.0033
   1.000   0.1055   0.01350   0.00315   0.0012   0.9967   1.0033
   1.250   0.1319   0.01355   0.00335   0.0015   0.9967   1.0033
   1.500   0.1582   0.01362   0.00361   0.0017   0.9967   1.0033
   1.750   0.1845   0.01370   0.00393   0.0019   0.9967   1.0033
   2.000   0.2108   0.01380   0.00435   0.0021   0.9967   1.0033
   2.250   0.2371   0.01394   0.00485   0.0021   0.9967   1.0033
   2.500   0.2636   0.01413   0.00556   0.0016   0.9967   1.0033
   2.750   0.3295   0.01554   0.00675  -0.0025   0.6706   1.0033
   3.000   0.3444   0.01726   0.00744   0.0021   0.5112   1.0033
   3.250   0.3659   0.01907   0.00852   0.0043   0.3736   1.0033
   3.500   0.3906   0.02080   0.00978   0.0056   0.2758   1.0033
   3.750   0.4172   0.02255   0.01132   0.0065   0.2195   1.0033
   4.000   0.4440   0.02431   0.01304   0.0071   0.1834   1.0033
   4.250   0.4724   0.02656   0.01554   0.0077   0.1643   1.0033
   4.500   0.4991   0.02865   0.01769   0.0081   0.1464   1.0033
   4.750   0.5283   0.03190   0.02161   0.0082   0.1402   1.0033
   5.000   0.5551   0.03491   0.02497   0.0082   0.1331   1.0033
   5.250   0.5815   0.03885   0.02953   0.0076   0.1283   1.0033
   5.500   0.6068   0.04355   0.03476   0.0068   0.1302   1.0033
   5.750   0.6328   0.05071   0.04283   0.0033   0.1428   1.0033
   5.750   0.6328   0.05071   0.04283   0.0033   0.1428   1.0033
   5.850   0.6417   0.05257   0.04468   0.0035   0.1454   1.0033
   6.250   0.6817   0.08056   0.07419  -0.0482   0.3609   1.0033
   6.500   0.6925   0.08464   0.07826  -0.0478   0.3442   1.0033
   6.500   0.6925   0.08465   0.07826  -0.0478   0.3442   1.0033
   6.600   0.6925   0.08622   0.07981  -0.0487   0.3376   1.0033
   7.000   0.7040   0.09252   0.08605  -0.0489   0.3102   1.0033
   7.250   0.7046   0.09586   0.08934  -0.0496   0.2932   1.0033
   7.500   0.7086   0.09948   0.09295  -0.0498   0.2773   1.0033
   7.750   0.7121   0.10324   0.09667  -0.0502   0.2644   1.0033
   8.000   0.7216   0.10773   0.10114  -0.0500   0.2546   1.0033
   8.250   0.7417   0.11335   0.10680  -0.0478   0.2425   1.0033
   8.500   0.7222   0.11461   0.10792  -0.0523   0.2343   1.0033
   8.750   0.7318   0.11938   0.11267  -0.0522   0.2268   1.0033
   9.000   0.7362   0.12295   0.11623  -0.0528   0.2166   1.0033
   9.250   0.7329   0.12642   0.11963  -0.0548   0.2108   1.0033
   9.500   0.7556   0.13291   0.12617  -0.0525   0.2004   1.0033
   9.750   0.7385   0.13393   0.12707  -0.0569   0.1958   1.0033
  10.000   0.7567   0.13994   0.13311  -0.0552   0.1861   1.0033
  10.250   0.7450   0.14142   0.13451  -0.0589   0.1806   1.0033
  10.500   0.7637   0.14772   0.14084  -0.0572   0.1721   1.0033
  10.750   0.7530   0.14908   0.14213  -0.0609   0.1676   1.0033
  11.000   0.7706   0.15491   0.14805  -0.0596   0.1598   1.0033
  11.250   0.7677   0.15802   0.15109  -0.0621   0.1573   1.0033
  11.500   0.7654   0.16038   0.15341  -0.0646   0.1518   1.0033
  11.750   0.7951   0.16980   0.16290  -0.0615   0.1450   1.0033
  12.000   0.7824   0.16982   0.16284  -0.0659   0.1437   1.0033
  12.250   0.7800   0.17176   0.16474  -0.0687   0.1392   1.0033
  12.500   0.7898   0.17617   0.16916  -0.0691   0.1338   1.0033
  12.750   0.8044   0.18308   0.17608  -0.0689   0.1307   1.0033
  13.000   0.7986   0.18354   0.17648  -0.0726   0.1283   1.0033
  13.250   0.8028   0.18653   0.17945  -0.0745   0.1235   1.0033
  13.500   0.8297   0.19720   0.19019  -0.0719   0.1174   1.0033
  13.750   0.8225   0.19654   0.18947  -0.0760   0.1165   1.0033
  14.000   0.8221   0.19763   0.19052  -0.0793   0.1130   1.0033
  14.250   0.8296   0.20116   0.19405  -0.0807   0.1081   1.0033
  14.500   0.8542   0.21256   0.20555  -0.0784   0.1038   1.0033
  14.750   0.8498   0.21162   0.20455  -0.0824   0.1031   1.0033
  15.000   0.8510   0.21238   0.20527  -0.0859   0.1009   1.0033
  15.250   0.8574   0.21529   0.20819  -0.0882   0.0974   1.0033
  15.500   0.8663   0.21914   0.21204  -0.0896   0.0941   1.0033
  15.750   0.8829   0.22757   0.22053  -0.0887   0.0909   1.0033
  16.000   0.8910   0.23243   0.22535  -0.0905   0.0900   1.0033
  16.250   0.8917   0.23169   0.22457  -0.0945   0.0890   1.0033
  16.500   0.8970   0.23331   0.22618  -0.0976   0.0867   1.0033
  16.750   0.9048   0.23640   0.22926  -0.0998   0.0838   1.0033
  17.000   0.9137   0.24005   0.23293  -0.1015   0.0811   1.0033
  17.250   0.9244   0.24511   0.23802  -0.1023   0.0787   1.0033
  17.500   0.9413   0.25691   0.24988  -0.1014   0.0769   1.0033
  17.750   0.9427   0.25493   0.24787  -0.1057   0.0764   1.0033
  18.000   0.9475   0.25490   0.24781  -0.1095   0.0750   1.0033
  18.250   0.9551   0.25718   0.25009  -0.1123   0.0725   1.0033
  18.500   0.9636   0.26037   0.25329  -0.1145   0.0699   1.0033
  18.750   0.9727   0.26410   0.25704  -0.1163   0.0674   1.0033
  19.000   0.9833   0.26972   0.26268  -0.1170   0.0652   1.0033
  19.250   0.9999   0.28391   0.27691  -0.1158   0.0639   1.0033
  19.500   1.0033   0.28197   0.27493  -0.1198   0.0636   1.0033
  19.750   1.0086   0.28111   0.27405  -0.1237   0.0631   1.0033
  20.000   1.0157   0.28184   0.27478  -0.1272   0.0621   1.0033
   0.000  -0.0000   0.01341   0.00279   0.0000   0.9967   1.0033
  -0.250  -0.0264   0.01341   0.00281  -0.0003   0.9967   1.0033
  -0.500  -0.0527   0.01343   0.00288  -0.0006   0.9967   1.0033
  -0.750  -0.0790   0.01345   0.00298  -0.0009   0.9967   1.0033
  -1.000  -0.1053   0.01349   0.00314  -0.0012   0.9967   1.0033
  -1.250  -0.1315   0.01354   0.00334  -0.0015   0.9967   1.0033
  -1.500  -0.1577   0.01361   0.00362  -0.0018   0.9967   1.0033
  -1.750  -0.1838   0.01369   0.00394  -0.0021   0.9967   1.0033
  -2.000  -0.2098   0.01379   0.00433  -0.0023   0.9967   1.0033
  -2.250  -0.2358   0.01392   0.00483  -0.0023   0.9967   1.0033
  -2.500  -0.2619   0.01411   0.00557  -0.0020   0.9967   1.0033
  -2.750  -0.3281   0.01552   0.00671   0.0023   0.9967   0.6758
  -3.000  -0.3429   0.01722   0.00741  -0.0023   0.9967   0.5149
  -3.250  -0.3640   0.01902   0.00844  -0.0046   0.9967   0.3779
  -3.500  -0.3884   0.02071   0.00966  -0.0060   0.9967   0.2781
  -3.750  -0.4147   0.02243   0.01112  -0.0069   0.9967   0.2201
  -4.000  -0.4425   0.02439   0.01317  -0.0076   0.9967   0.1869
  -4.250  -0.4694   0.02630   0.01514  -0.0081   0.9967   0.1621
  -4.500  -0.4972   0.02888   0.01794  -0.0086   0.9967   0.1504
  -4.750  -0.5240   0.03138   0.02073  -0.0089   0.9967   0.1379
  -5.000  -0.5527   0.03492   0.02512  -0.0086   0.9967   0.1328
  -5.250  -0.5798   0.03931   0.03020  -0.0079   0.9967   0.1334
  -5.500  -0.6050   0.04414   0.03562  -0.0067   0.9967   0.1343
  -5.750  -0.6280   0.04928   0.04125  -0.0049   0.9967   0.1352
  -6.000  -0.6516   0.05674   0.04930  -0.0011   0.9967   0.1527
  -6.000  -0.6753   0.07699   0.07071   0.0467   0.9967   0.3917
  -6.100  -0.6748   0.07812   0.07182   0.0474   0.9967   0.3796
  -6.200  -0.6753   0.07949   0.07316   0.0477   0.9967   0.3688
  -6.500  -0.6844   0.08385   0.07749   0.0468   0.9967   0.3402
  -6.750  -0.6955   0.08782   0.08145   0.0456   0.9967   0.3222
  -7.000  -0.7029   0.09183   0.08543   0.0457   0.9967   0.3075
  -7.250  -0.7061   0.09556   0.08912   0.0466   0.9967   0.2937
  -7.250  -0.7061   0.09556   0.08912   0.0466   0.9967   0.2937
  -7.350  -0.7103   0.09764   0.09118   0.0464   0.9967   0.2903
  -7.450  -0.7006   0.09804   0.09152   0.0480   0.9967   0.2841
  -7.750  -0.7038   0.10248   0.09590   0.0485   0.9967   0.2706
  -8.000  -0.7116   0.10678   0.10018   0.0483   0.9967   0.2608
  -8.250  -0.7244   0.11154   0.10493   0.0472   0.9967   0.2485
  -8.500  -0.7346   0.11602   0.10941   0.0462   0.9967   0.2350
  -8.750  -0.7149   0.11723   0.11049   0.0504   0.9967   0.2287
  -9.000  -0.7232   0.12162   0.11486   0.0501   0.9967   0.2188
  -9.250  -0.7439   0.12764   0.12097   0.0478   0.9967   0.2070
  -9.500  -0.7239   0.12843   0.12162   0.0522   0.9967   0.2020
  -9.750  -0.7493   0.13543   0.12869   0.0495   0.9967   0.1930
 -10.000  -0.7305   0.13608   0.12922   0.0538   0.9967   0.1890
 -10.250  -0.7417   0.14061   0.13377   0.0533   0.9967   0.1809
 -10.500  -0.7413   0.14435   0.13745   0.0549   0.9967   0.1773
 -10.750  -0.7399   0.14706   0.14013   0.0567   0.9967   0.1705
 -11.000  -0.7598   0.15404   0.14714   0.0551   0.9967   0.1649
 -11.250  -0.7475   0.15481   0.14784   0.0587   0.9967   0.1614
 -11.500  -0.7535   0.15851   0.15153   0.0594   0.9967   0.1549
 -11.750  -0.7651   0.16425   0.15727   0.0593   0.9967   0.1505
 -12.000  -0.7590   0.16561   0.15857   0.0622   0.9967   0.1462
 -12.250  -0.7857   0.17455   0.16758   0.0594   0.9967   0.1375
 -12.500  -0.7751   0.17458   0.16753   0.0633   0.9967   0.1363
 -12.750  -0.7732   0.17636   0.16927   0.0659   0.9967   0.1316
 -13.000  -0.7833   0.18082   0.17375   0.0661   0.9967   0.1262
 -13.250  -0.7978   0.18785   0.18083   0.0658   0.9967   0.1234
 -13.500  -0.7920   0.18801   0.18093   0.0694   0.9967   0.1215
 -13.750  -0.7954   0.19061   0.18352   0.0714   0.9967   0.1172
 -14.000  -0.8046   0.19483   0.18775   0.0721   0.9967   0.1130
 -14.250  -0.8244   0.20416   0.19711   0.0709   0.9967   0.1100
 -14.500  -0.8193   0.20344   0.19633   0.0746   0.9967   0.1090
 -14.750  -0.8211   0.20491   0.19777   0.0774   0.9967   0.1060
 -15.000  -0.8277   0.20809   0.20095   0.0791   0.9967   0.1024
 -15.250  -0.8376   0.21253   0.20541   0.0798   0.9967   0.0990
 -15.500  -0.8559   0.22252   0.21543   0.0788   0.9967   0.0964
 -15.750  -0.8534   0.22117   0.21402   0.0827   0.9967   0.0956
 -16.000  -0.8565   0.22218   0.21501   0.0858   0.9967   0.0929
 -16.250  -0.8635   0.22514   0.21797   0.0877   0.9967   0.0893
 -16.250  -0.8635   0.22513   0.21796   0.0877   0.9967   0.0893
 -16.350  -0.8669   0.22660   0.21943   0.0882   0.9967   0.0878
 -16.450  -0.8708   0.22828   0.22112   0.0886   0.9967   0.0864
 -16.750  -0.8924   0.24141   0.23433   0.0870   0.9967   0.0831
 -17.000  -0.8920   0.23980   0.23268   0.0908   0.9967   0.0826
 -17.250  -0.8954   0.23999   0.23285   0.0942   0.9967   0.0814
 -17.500  -0.9018   0.24211   0.23496   0.0969   0.9967   0.0790
 -17.750  -0.9096   0.24517   0.23802   0.0989   0.9967   0.0765
 -18.000  -0.9180   0.24861   0.24148   0.1006   0.9967   0.0742
 -18.250  -0.9276   0.25311   0.24599   0.1016   0.9967   0.0720
 -18.500  -0.9473   0.26845   0.26138   0.0995   0.9967   0.0700
 -18.750  -0.9488   0.26636   0.25926   0.1032   0.9967   0.0697
 -19.000  -0.9525   0.26533   0.25820   0.1069   0.9967   0.0692
 -19.250  -0.9585   0.26597   0.25883   0.1102   0.9967   0.0680
 -19.500  -0.9660   0.26826   0.26112   0.1128   0.9967   0.0662
 -19.750  -0.9741   0.27117   0.26404   0.1150   0.9967   0.0643
 -20.000  -0.9823   0.27432   0.26725   0.1170   0.9967   0.0624
