  
       XFOIL         Version 6.99
  
 Calculated polar for: MH 43  8.5%                                     
  
 1 1 Reynolds number fixed          Mach number fixed         
  
 xtrf =   1.000 (top)        1.000 (bottom)  
 Mach =   0.000     Re =     0.050 e 6     Ncrit =   9.000
  
   alpha    CL        CD       CDp       CM     Top_Xtr  Bot_Xtr
  ------ -------- --------- --------- -------- -------- --------
   0.000  -0.0076   0.01840   0.00828  -0.0130   1.0000   1.0000
   0.250   0.0095   0.01887   0.00861  -0.0126   1.0000   1.0000
   0.500   0.0267   0.01937   0.00896  -0.0122   1.0000   1.0000
   0.750   0.0640   0.02019   0.00967  -0.0158   0.9913   1.0000
   1.000   0.1135   0.02118   0.01057  -0.0215   0.9761   1.0000
   1.250   0.1615   0.02213   0.01147  -0.0266   0.9607   1.0000
   1.500   0.2093   0.02304   0.01236  -0.0316   0.9448   1.0000
   1.750   0.2585   0.02391   0.01326  -0.0366   0.9286   1.0000
   2.000   0.3005   0.02469   0.01409  -0.0401   0.9114   1.0000
   2.250   0.3414   0.02543   0.01492  -0.0432   0.8933   1.0000
   2.500   0.3895   0.02610   0.01571  -0.0472   0.8755   1.0000
   2.750   0.4335   0.02671   0.01646  -0.0503   0.8567   1.0000
   3.000   0.4707   0.02729   0.01724  -0.0518   0.8369   1.0000
   3.250   0.5160   0.02764   0.01777  -0.0540   0.8180   1.0000
   3.500   0.5426   0.02821   0.01849  -0.0534   0.7959   1.0000
   3.750   0.5777   0.02845   0.01891  -0.0532   0.7750   1.0000
   4.000   0.6075   0.02866   0.01937  -0.0521   0.7524   1.0000
   4.250   0.6335   0.02888   0.01976  -0.0503   0.7284   1.0000
   4.500   0.6613   0.02880   0.01988  -0.0480   0.7042   1.0000
   4.750   0.6890   0.02846   0.01973  -0.0452   0.6792   1.0000
   5.000   0.7138   0.02810   0.01961  -0.0420   0.6514   1.0000
   5.250   0.7375   0.02766   0.01934  -0.0386   0.6205   1.0000
   5.500   0.7628   0.02682   0.01861  -0.0347   0.5877   1.0000
   5.750   0.7858   0.02612   0.01801  -0.0309   0.5484   1.0000
   6.000   0.8089   0.02532   0.01717  -0.0269   0.5028   1.0000
   6.250   0.8286   0.02505   0.01679  -0.0233   0.4447   1.0000
   6.500   0.8461   0.02536   0.01685  -0.0198   0.3767   1.0000
   6.750   0.8614   0.02657   0.01761  -0.0170   0.3054   1.0000
   7.000   0.8763   0.02842   0.01896  -0.0146   0.2430   1.0000
   7.250   0.8931   0.03070   0.02098  -0.0128   0.1939   1.0000
   7.500   0.9133   0.03345   0.02359  -0.0113   0.1600   1.0000
   7.750   0.9321   0.03607   0.02619  -0.0100   0.1341   1.0000
   8.000   0.9531   0.03954   0.02994  -0.0087   0.1197   1.0000
   8.250   0.9715   0.04305   0.03368  -0.0075   0.1084   1.0000
   8.500   0.9888   0.04656   0.03724  -0.0066   0.0975   1.0000
   8.750   0.9964   0.05099   0.04246  -0.0049   0.0954   1.0000
   9.000   0.9997   0.05585   0.04793  -0.0035   0.0944   1.0000
   9.250   0.9977   0.06078   0.05335  -0.0025   0.0940   1.0000
   9.500   0.9897   0.06572   0.05868  -0.0017   0.0941   1.0000
   9.750   0.9774   0.07068   0.06393  -0.0014   0.0947   1.0000
  10.000   0.9634   0.07563   0.06906  -0.0014   0.0956   1.0000
  10.250   0.9477   0.08043   0.07396  -0.0016   0.0965   1.0000
  10.500   0.9339   0.08574   0.07932  -0.0028   0.0972   1.0000
  10.500   0.9339   0.08574   0.07931  -0.0028   0.0972   1.0000
  10.600   0.9309   0.08798   0.08157  -0.0033   0.0975   1.0000
  11.250   0.8227   0.11825   0.11172  -0.0295   0.1263   1.0000
  11.000   0.8314   0.11026   0.10379  -0.0253   0.1194   1.0000
  11.100   0.8293   0.11307   0.10658  -0.0265   0.1208   1.0000
  11.200   0.8288   0.11568   0.10917  -0.0273   0.1219   1.0000
  11.500   0.7724   0.14249   0.13571  -0.0518   0.2711   1.0000
  11.250   0.7748   0.13761   0.13086  -0.0499   0.2724   1.0000
  11.350   0.7780   0.13999   0.13326  -0.0504   0.2721   1.0000
  11.450   0.7771   0.14195   0.13519  -0.0511   0.2715   1.0000
  11.750   0.7596   0.14534   0.13848  -0.0541   0.2645   1.0000
  12.000   0.7805   0.15189   0.14511  -0.0537   0.2578   1.0000
  12.250   0.7651   0.15398   0.14712  -0.0564   0.2515   1.0000
  12.500   0.7723   0.15844   0.15158  -0.0569   0.2414   1.0000
  12.750   0.7817   0.16299   0.15614  -0.0572   0.2293   1.0000
  13.000   0.7838   0.16650   0.15964  -0.0585   0.2203   1.0000
  13.250   0.7892   0.17125   0.16438  -0.0597   0.2156   1.0000
  13.500   0.7906   0.17442   0.16753  -0.0613   0.2077   1.0000
  13.750   0.8015   0.17990   0.17302  -0.0620   0.2028   1.0000
  14.000   0.7996   0.18226   0.17535  -0.0642   0.1950   1.0000
  14.250   0.8084   0.18699   0.18007  -0.0651   0.1884   1.0000
  14.500   0.8288   0.19374   0.18686  -0.0644   0.1768   1.0000
  14.750   0.8170   0.19387   0.18691  -0.0683   0.1731   1.0000
  15.000   0.8329   0.19938   0.19246  -0.0682   0.1648   1.0000
  15.250   0.8345   0.20273   0.19577  -0.0707   0.1621   1.0000
  15.500   0.8356   0.20501   0.19801  -0.0732   0.1558   1.0000
  15.750   0.8617   0.21441   0.20747  -0.0717   0.1502   1.0000
  16.000   0.8517   0.21339   0.20637  -0.0762   0.1480   1.0000
  16.250   0.8566   0.21622   0.20919  -0.0783   0.1418   1.0000
  16.500   0.8758   0.22406   0.21706  -0.0777   0.1366   1.0000
  16.750   0.8708   0.22369   0.21663  -0.0818   0.1333   1.0000
  17.000   0.8801   0.22739   0.22034  -0.0831   0.1267   1.0000
  17.250   0.8941   0.23395   0.22698  -0.0835   0.1232   1.0000
  17.500   0.8924   0.23413   0.22710  -0.0874   0.1193   1.0000
  17.750   0.9013   0.23771   0.23069  -0.0890   0.1144   1.0000
  18.000   0.9248   0.24877   0.24181  -0.0875   0.1106   1.0000
  18.250   0.9202   0.24684   0.23981  -0.0920   0.1096   1.0000
  18.500   0.9232   0.24815   0.24109  -0.0953   0.1063   1.0000
  18.750   0.9313   0.25148   0.24442  -0.0973   0.1023   1.0000
  19.000   0.9446   0.25721   0.25019  -0.0976   0.0989   1.0000
  19.250   0.9567   0.26413   0.25711  -0.0985   0.0973   1.0000
  19.500   0.9565   0.26301   0.25593  -0.1028   0.0959   1.0000
  19.750   0.9623   0.26505   0.25796  -0.1057   0.0927   1.0000
  20.000   0.9703   0.26830   0.26122  -0.1075   0.0894   1.0000
   0.000  -0.0346   0.00485  -0.00434  -0.0112   1.0000   1.0000
  -0.250  -0.0498   0.00455  -0.00449  -0.0117   1.0000   1.0000
  -0.500  -0.0652   0.00430  -0.00457  -0.0121   1.0000   1.0000
  -0.750  -0.0803   0.00409  -0.00455  -0.0127   1.0000   1.0000
  -1.000  -0.0949   0.00391  -0.00451  -0.0134   1.0000   1.0000
  -1.250  -0.1083   0.00377  -0.00441  -0.0143   1.0000   1.0000
  -1.500  -0.1201   0.00366  -0.00426  -0.0155   1.0000   1.0000
  -1.750  -0.1287   0.00358  -0.00405  -0.0170   1.0000   1.0000
  -2.000  -0.1289   0.00351  -0.00383  -0.0196   1.0000   1.0000
  -2.250  -0.1111   0.00351  -0.00365  -0.0242   1.0000   1.0000
  -2.500  -0.2519   0.00372  -0.00255  -0.0079   1.0000   0.7515
  -2.750  -0.2542   0.00439  -0.00264  -0.0151   1.0000   0.5943
  -3.000  -0.2636   0.00546  -0.00238  -0.0194   1.0000   0.4483
  -3.250  -0.2763   0.00694  -0.00167  -0.0222   1.0000   0.3198
  -3.500  -0.2934   0.00903  -0.00011  -0.0242   1.0000   0.2191
  -3.750  -0.3103   0.01098   0.00150  -0.0260   1.0000   0.1680
  -4.000  -0.3292   0.01307   0.00368  -0.0278   1.0000   0.1404
  -4.250  -0.3473   0.01511   0.00602  -0.0295   1.0000   0.1229
  -4.500  -0.3657   0.01747   0.00848  -0.0310   1.0000   0.1131
  -4.750  -0.3830   0.01962   0.01112  -0.0325   1.0000   0.1039
  -5.000  -0.4003   0.02246   0.01406  -0.0336   1.0000   0.1002
  -5.250  -0.4176   0.02577   0.01798  -0.0345   1.0000   0.1012
  -5.500  -0.4310   0.03086   0.02399  -0.0343   1.0000   0.1081
  -5.750  -0.4448   0.03540   0.02875  -0.0342   1.0000   0.1125
  -6.000  -0.4848   0.05434   0.04770  -0.0320   1.0000   0.1238
  -6.250  -0.5023   0.06050   0.05395  -0.0310   1.0000   0.1408
  -6.500  -0.4758   0.07809   0.07229   0.0068   1.0000   0.3379
  -6.750  -0.4786   0.08136   0.07548   0.0067   1.0000   0.3239
  -7.000  -0.4807   0.08467   0.07870   0.0066   1.0000   0.3102
  -7.250  -0.4832   0.08802   0.08197   0.0067   1.0000   0.2968
  -7.500  -0.4856   0.09135   0.08522   0.0070   1.0000   0.2843
  -7.750  -0.4894   0.09473   0.08852   0.0072   1.0000   0.2720
  -8.000  -0.4938   0.09821   0.09194   0.0075   1.0000   0.2590
  -8.250  -0.5003   0.10185   0.09553   0.0077   1.0000   0.2470
  -8.500  -0.5084   0.10568   0.09931   0.0076   1.0000   0.2347
  -8.750  -0.5177   0.10980   0.10339   0.0075   1.0000   0.2219
  -9.000  -0.5144   0.11217   0.10568   0.0091   1.0000   0.2123
  -9.250  -0.5168   0.11579   0.10924   0.0103   1.0000   0.2059
  -9.500  -0.5343   0.12074   0.11420   0.0096   1.0000   0.1963
  -9.750  -0.5239   0.12276   0.11611   0.0125   1.0000   0.1914
 -10.000  -0.5455   0.12853   0.12191   0.0113   1.0000   0.1823
 -10.250  -0.5344   0.13022   0.12349   0.0145   1.0000   0.1787
 -10.500  -0.5406   0.13370   0.12694   0.0154   1.0000   0.1711
 -10.750  -0.5492   0.13841   0.13161   0.0162   1.0000   0.1667
 -11.000  -0.5462   0.14062   0.13376   0.0184   1.0000   0.1602
 -11.250  -0.5722   0.14812   0.14136   0.0169   1.0000   0.1543
 -11.500  -0.5597   0.14844   0.14159   0.0207   1.0000   0.1519
 -11.750  -0.5624   0.15126   0.14438   0.0224   1.0000   0.1464
 -12.000  -0.5890   0.15944   0.15259   0.0209   1.0000   0.1407
 -12.250  -0.5777   0.15947   0.15253   0.0247   1.0000   0.1388
 -12.500  -0.5794   0.16191   0.15494   0.0267   1.0000   0.1337
 -12.750  -0.5998   0.16854   0.16160   0.0261   1.0000   0.1281
 -13.000  -0.6026   0.17185   0.16485   0.0281   1.0000   0.1265
 -13.250  -0.5993   0.17279   0.16574   0.0311   1.0000   0.1234
 -13.500  -0.6058   0.17602   0.16895   0.0327   1.0000   0.1187
 -13.750  -0.6348   0.18635   0.17932   0.0310   1.0000   0.1137
 -14.000  -0.6276   0.18568   0.17858   0.0346   1.0000   0.1129
 -14.250  -0.6271   0.18660   0.17945   0.0375   1.0000   0.1100
 -14.500  -0.6342   0.18968   0.18252   0.0393   1.0000   0.1056
 -14.750  -0.6628   0.20109   0.19398   0.0375   1.0000   0.1004
 -15.000  -0.6581   0.20008   0.19290   0.0410   1.0000   0.0998
 -15.250  -0.6584   0.20051   0.19329   0.0441   1.0000   0.0979
 -15.500  -0.6645   0.20301   0.19577   0.0463   1.0000   0.0940
 -15.750  -0.6745   0.20680   0.19956   0.0476   1.0000   0.0902
 -16.000  -0.6997   0.21877   0.21163   0.0463   1.0000   0.0871
 -16.250  -0.6979   0.21762   0.21043   0.0497   1.0000   0.0866
 -16.500  -0.6996   0.21769   0.21046   0.0530   1.0000   0.0854
 -16.750  -0.7058   0.21973   0.21248   0.0556   1.0000   0.0830
 -17.000  -0.7138   0.22267   0.21541   0.0575   1.0000   0.0805
 -17.250  -0.7232   0.22618   0.21892   0.0592   1.0000   0.0779
 -17.500  -0.7349   0.23097   0.22372   0.0602   1.0000   0.0756
 -17.750  -0.7546   0.24251   0.23528   0.0597   1.0000   0.0739
 -18.000  -0.7559   0.24128   0.23401   0.0631   1.0000   0.0735
 -18.250  -0.7595   0.24106   0.23375   0.0664   1.0000   0.0727
 -18.500  -0.7659   0.24254   0.23521   0.0692   1.0000   0.0711
 -18.750  -0.7740   0.24516   0.23782   0.0715   1.0000   0.0691
 -19.000  -0.7827   0.24814   0.24081   0.0736   1.0000   0.0672
 -19.250  -0.7919   0.25146   0.24412   0.0755   1.0000   0.0651
 -19.500  -0.8017   0.25520   0.24787   0.0771   1.0000   0.0635
 -19.750  -0.8145   0.26205   0.25475   0.0777   1.0000   0.0617
 -20.000  -0.8294   0.27243   0.26519   0.0782   1.0000   0.0609
