  
       XFOIL         Version 6.99
  
 Calculated polar for: SD7080 (9.2%)                                   
  
 1 1 Reynolds number fixed          Mach number fixed         
  
 xtrf =   1.000 (top)        1.000 (bottom)  
 Mach =   0.000     Re =     0.050 e 6     Ncrit =   9.000
  
   alpha    CL        CD       CDp       CM     Top_Xtr  Bot_Xtr
  ------ -------- --------- --------- -------- -------- --------
   0.000   0.0353   0.01988   0.01021  -0.0263   1.0000   1.0000
   0.250   0.0538   0.02043   0.01060  -0.0261   1.0000   1.0000
   0.500   0.0718   0.02103   0.01107  -0.0259   1.0000   1.0000
   0.750   0.0894   0.02171   0.01162  -0.0258   1.0000   1.0000
   1.000   0.1105   0.02254   0.01234  -0.0266   0.9980   1.0000
   1.250   0.1707   0.02401   0.01369  -0.0344   0.9768   1.0000
   1.500   0.2290   0.02529   0.01488  -0.0413   0.9554   1.0000
   1.750   0.2810   0.02625   0.01580  -0.0468   0.9325   1.0000
   2.000   0.3316   0.02704   0.01659  -0.0516   0.9100   1.0000
   2.250   0.3823   0.02762   0.01720  -0.0560   0.8873   1.0000
   2.500   0.4265   0.02804   0.01768  -0.0590   0.8637   1.0000
   2.750   0.4823   0.02811   0.01784  -0.0632   0.8422   1.0000
   3.000   0.5236   0.02819   0.01801  -0.0650   0.8181   1.0000
   3.250   0.5814   0.02761   0.01759  -0.0683   0.7980   1.0000
   3.500   0.6165   0.02746   0.01754  -0.0683   0.7732   1.0000
   3.750   0.6581   0.02694   0.01713  -0.0686   0.7501   1.0000
   4.000   0.6998   0.02625   0.01658  -0.0684   0.7269   1.0000
   4.250   0.7320   0.02598   0.01640  -0.0673   0.7005   1.0000
   4.500   0.7639   0.02574   0.01621  -0.0660   0.6738   1.0000
   4.750   0.7942   0.02562   0.01615  -0.0645   0.6461   1.0000
   5.000   0.8224   0.02568   0.01622  -0.0629   0.6176   1.0000
   5.250   0.8489   0.02592   0.01645  -0.0612   0.5885   1.0000
   5.500   0.8742   0.02630   0.01682  -0.0595   0.5592   1.0000
   5.750   0.8986   0.02681   0.01734  -0.0579   0.5300   1.0000
   6.000   0.9223   0.02742   0.01794  -0.0562   0.5011   1.0000
   6.250   0.9456   0.02812   0.01862  -0.0546   0.4723   1.0000
   6.500   0.9688   0.02891   0.01937  -0.0531   0.4445   1.0000
   6.750   0.9919   0.02974   0.02018  -0.0515   0.4170   1.0000
   7.000   1.0132   0.03073   0.02120  -0.0500   0.3898   1.0000
   7.250   1.0329   0.03193   0.02248  -0.0484   0.3635   1.0000
   7.500   1.0528   0.03315   0.02376  -0.0468   0.3380   1.0000
   7.750   1.0744   0.03436   0.02496  -0.0453   0.3136   1.0000
   8.000   1.0933   0.03572   0.02639  -0.0437   0.2896   1.0000
   8.250   1.1104   0.03736   0.02817  -0.0420   0.2671   1.0000
   8.500   1.1315   0.03874   0.02946  -0.0406   0.2448   1.0000
   8.750   1.1443   0.04079   0.03177  -0.0386   0.2247   1.0000
   9.000   1.1598   0.04285   0.03401  -0.0368   0.2059   1.0000
   9.250   1.1789   0.04471   0.03575  -0.0354   0.1867   1.0000
   9.500   1.1882   0.04745   0.03879  -0.0332   0.1716   1.0000
   9.750   1.1957   0.05017   0.04176  -0.0310   0.1571   1.0000
  10.000   1.2018   0.05295   0.04474  -0.0288   0.1433   1.0000
  10.250   1.2074   0.05570   0.04761  -0.0267   0.1304   1.0000
  10.500   1.2139   0.05834   0.05029  -0.0248   0.1180   1.0000
  10.750   1.1953   0.06287   0.05540  -0.0218   0.1159   1.0000
  11.000   1.1746   0.06744   0.06036  -0.0194   0.1147   1.0000
  11.250   1.1493   0.07202   0.06519  -0.0172   0.1148   1.0000
  11.500   1.1231   0.07716   0.07052  -0.0164   0.1158   1.0000
  11.750   1.0965   0.08309   0.07659  -0.0172   0.1169   1.0000
  12.000   1.0725   0.08981   0.08338  -0.0194   0.1180   1.0000
  12.000   1.0672   0.09037   0.08399  -0.0200   0.1196   1.0000
  12.100   1.0610   0.09297   0.08661  -0.0209   0.1192   1.0000
  12.200   1.0540   0.09581   0.08945  -0.0219   0.1188   1.0000
  13.000   0.8357   0.16287   0.15565  -0.0765   0.2914   1.0000
  13.250   0.8386   0.16684   0.15965  -0.0776   0.2814   1.0000
  13.500   0.8515   0.17195   0.16482  -0.0779   0.2708   1.0000
  13.750   0.8690   0.17777   0.17076  -0.0778   0.2578   1.0000
  14.000   0.8537   0.17883   0.17176  -0.0808   0.2510   1.0000
  14.250   0.8633   0.18359   0.17655  -0.0815   0.2412   1.0000
  14.500   0.8797   0.18941   0.18244  -0.0815   0.2289   1.0000
  14.750   0.8718   0.19080   0.18379  -0.0842   0.2205   1.0000
  15.000   0.8823   0.19595   0.18897  -0.0851   0.2135   1.0000
  15.250   0.9039   0.20292   0.19601  -0.0844   0.2011   1.0000
  15.500   0.8900   0.20284   0.19584  -0.0886   0.1972   1.0000
  15.750   0.9108   0.20945   0.20253  -0.0880   0.1879   1.0000
  16.000   0.9057   0.21132   0.20433  -0.0914   0.1851   1.0000
  16.250   0.9106   0.21423   0.20725  -0.0933   0.1770   1.0000
  16.500   0.9238   0.22007   0.21311  -0.0939   0.1722   1.0000
  16.750   0.9221   0.22138   0.21438  -0.0972   0.1658   1.0000
  17.000   0.9436   0.22889   0.22201  -0.0964   0.1600   1.0000
  17.250   0.9423   0.23085   0.22391  -0.0997   0.1581   1.0000
  17.500   0.9431   0.23245   0.22549  -0.1029   0.1532   1.0000
  17.750   0.9558   0.23712   0.23020  -0.1036   0.1478   1.0000
  18.000   0.9670   0.24296   0.23604  -0.1048   0.1449   1.0000
  18.250   0.9656   0.24332   0.23636  -0.1087   0.1409   1.0000
  18.500   0.9759   0.24720   0.24027  -0.1099   0.1349   1.0000
  18.750   0.9937   0.25574   0.24884  -0.1096   0.1318   1.0000
  19.000   0.9900   0.25455   0.24760  -0.1142   0.1297   1.0000
  19.250   0.9956   0.25703   0.25008  -0.1168   0.1254   1.0000
  19.500   1.0058   0.26102   0.25410  -0.1181   0.1216   1.0000
  19.750   1.0284   0.27294   0.26612  -0.1167   0.1187   1.0000
  20.000   1.0239   0.27012   0.26324  -0.1214   0.1177   1.0000
   0.000   0.0353   0.01988   0.01021  -0.0263   1.0000   1.0000
  -0.250   0.0164   0.01940   0.00991  -0.0266   1.0000   1.0000
  -0.500  -0.0030   0.01898   0.00972  -0.0269   1.0000   1.0000
  -0.750  -0.0227   0.01861   0.00959  -0.0272   1.0000   1.0000
  -1.000  -0.0428   0.01830   0.00955  -0.0276   1.0000   1.0000
  -1.250  -0.0632   0.01803   0.00961  -0.0279   1.0000   1.0000
  -1.500  -0.0840   0.01782   0.00979  -0.0283   1.0000   1.0000
  -1.750  -0.1051   0.01767   0.01010  -0.0285   1.0000   1.0000
  -2.000  -0.1269   0.01761   0.01067  -0.0285   1.0000   1.0000
  -2.250  -0.1480   0.02006   0.01101  -0.0351   1.0000   0.4062
  -2.500  -0.1725   0.02281   0.01227  -0.0358   1.0000   0.2012
  -2.750  -0.1970   0.02437   0.01367  -0.0369   1.0000   0.1580
  -3.000  -0.2213   0.02576   0.01511  -0.0378   1.0000   0.1395
  -3.250  -0.2461   0.02735   0.01689  -0.0388   1.0000   0.1303
  -3.500  -0.2708   0.02930   0.01911  -0.0396   1.0000   0.1257
  -3.750  -0.2957   0.03128   0.02159  -0.0402   1.0000   0.1212
  -4.000  -0.3188   0.03344   0.02413  -0.0408   1.0000   0.1174
  -4.250  -0.3426   0.03644   0.02770  -0.0410   1.0000   0.1194
  -4.500  -0.3645   0.03992   0.03168  -0.0410   1.0000   0.1238
  -4.750  -0.3841   0.04334   0.03536  -0.0414   1.0000   0.1286
  -5.000  -0.4037   0.04831   0.04087  -0.0406   1.0000   0.1427
  -5.000  -0.4055   0.04990   0.04291  -0.0382   1.0000   0.1525
  -5.100  -0.4124   0.05129   0.04424  -0.0390   1.0000   0.1574
  -5.500  -0.3953   0.07223   0.06636   0.0033   1.0000   0.4157
  -5.750  -0.3982   0.07479   0.06885   0.0004   1.0000   0.3967
  -6.000  -0.4091   0.07802   0.07205  -0.0023   1.0000   0.3791
  -6.250  -0.4109   0.08086   0.07480  -0.0047   1.0000   0.3625
  -6.500  -0.4015   0.08271   0.07652  -0.0069   1.0000   0.3466
  -6.750  -0.4012   0.08525   0.07896  -0.0091   1.0000   0.3321
  -7.000  -0.4025   0.08794   0.08156  -0.0111   1.0000   0.3176
  -7.250  -0.4033   0.09062   0.08416  -0.0129   1.0000   0.3029
  -7.500  -0.4108   0.09381   0.08729  -0.0144   1.0000   0.2886
  -7.750  -0.4149   0.09680   0.09021  -0.0158   1.0000   0.2740
  -8.000  -0.3947   0.09728   0.09052  -0.0155   1.0000   0.2634
  -8.250  -0.3935   0.09993   0.09308  -0.0157   1.0000   0.2527
  -8.500  -0.4050   0.10376   0.09688  -0.0164   1.0000   0.2428
  -8.750  -0.4168   0.10743   0.10056  -0.0173   1.0000   0.2309
  -9.000  -0.4034   0.10883   0.10182  -0.0157   1.0000   0.2242
  -9.250  -0.4315   0.11497   0.10800  -0.0176   1.0000   0.2150
  -9.500  -0.4106   0.11486   0.10774  -0.0149   1.0000   0.2089
  -9.750  -0.4394   0.12149   0.11442  -0.0169   1.0000   0.2003
 -10.000  -0.4193   0.12125   0.11404  -0.0140   1.0000   0.1957
 -10.250  -0.4352   0.12569   0.11850  -0.0147   1.0000   0.1872
 -10.500  -0.4324   0.12832   0.12105  -0.0131   1.0000   0.1835
 -10.750  -0.4326   0.13057   0.12325  -0.0119   1.0000   0.1766
 -11.000  -0.4552   0.13723   0.12992  -0.0131   1.0000   0.1707
 -11.250  -0.4424   0.13733   0.12993  -0.0103   1.0000   0.1671
 -11.500  -0.4493   0.14053   0.13311  -0.0097   1.0000   0.1602
 -11.750  -0.4658   0.14640   0.13901  -0.0100   1.0000   0.1559
 -12.000  -0.4566   0.14681   0.13934  -0.0074   1.0000   0.1518
 -12.250  -0.4655   0.15026   0.14279  -0.0069   1.0000   0.1453
 -12.500  -0.4803   0.15615   0.14867  -0.0069   1.0000   0.1413
 -12.750  -0.4734   0.15652   0.14897  -0.0043   1.0000   0.1377
 -13.000  -0.4796   0.15954   0.15197  -0.0033   1.0000   0.1325
 -13.250  -0.5109   0.16963   0.16212  -0.0050   1.0000   0.1276
 -13.500  -0.5000   0.16861   0.16102  -0.0019   1.0000   0.1266
 -13.750  -0.4977   0.16945   0.16181   0.0005   1.0000   0.1235
 -14.000  -0.5036   0.17233   0.16468   0.0018   1.0000   0.1192
 -14.250  -0.5164   0.17699   0.16935   0.0021   1.0000   0.1153
 -14.500  -0.5348   0.18485   0.17721   0.0022   1.0000   0.1131
 -14.750  -0.5291   0.18397   0.17627   0.0051   1.0000   0.1119
 -15.000  -0.5311   0.18536   0.17763   0.0074   1.0000   0.1088
 -15.250  -0.5381   0.18829   0.18058   0.0089   1.0000   0.1052
 -15.500  -0.5487   0.19234   0.18463   0.0097   1.0000   0.1018
 -15.750  -0.5727   0.20313   0.19544   0.0089   1.0000   0.0990
 -16.000  -0.5680   0.20140   0.19366   0.0120   1.0000   0.0983
 -16.250  -0.5692   0.20165   0.19387   0.0148   1.0000   0.0963
 -16.500  -0.5757   0.20406   0.19627   0.0167   1.0000   0.0928
 -16.750  -0.5845   0.20734   0.19955   0.0181   1.0000   0.0895
 -17.000  -0.5996   0.21385   0.20609   0.0181   1.0000   0.0862
 -17.250  -0.6146   0.22187   0.21409   0.0188   1.0000   0.0850
 -17.500  -0.6141   0.22050   0.21268   0.0218   1.0000   0.0845
 -17.750  -0.6174   0.22074   0.21289   0.0246   1.0000   0.0830
 -18.000  -0.6241   0.22286   0.21500   0.0269   1.0000   0.0807
 -18.250  -0.6322   0.22570   0.21787   0.0287   1.0000   0.0783
 -18.500  -0.6411   0.22887   0.22104   0.0303   1.0000   0.0762
 -18.750  -0.6512   0.23284   0.22501   0.0316   1.0000   0.0740
 -19.000  -0.6687   0.24272   0.23494   0.0313   1.0000   0.0720
 -19.250  -0.6781   0.24777   0.23995   0.0330   1.0000   0.0715
 -19.500  -0.6802   0.24625   0.23840   0.0361   1.0000   0.0711
 -19.750  -0.6846   0.24595   0.23807   0.0391   1.0000   0.0702
 -20.000  -0.6913   0.24743   0.23954   0.0416   1.0000   0.0684
