  
       XFOIL         Version 6.99
  
 Calculated polar for: FX 84-W-127                                     
  
 1 1 Reynolds number fixed          Mach number fixed         
  
 xtrf =   1.000 (top)        1.000 (bottom)  
 Mach =   0.000     Re =     0.050 e 6     Ncrit =   9.000
  
   alpha    CL        CD       CDp       CM     Top_Xtr  Bot_Xtr
  ------ -------- --------- --------- -------- -------- --------
   0.000   0.0180   0.03606   0.02683  -0.0519   0.9195   1.0000
   0.250   0.0481   0.03721   0.02770  -0.0536   0.9119   1.0000
   0.500   0.0653   0.03800   0.02830  -0.0533   0.9065   1.0000
   0.750   0.1010   0.03942   0.02947  -0.0559   0.8983   1.0000
   1.000   0.1127   0.04012   0.03003  -0.0548   0.8930   1.0000
   1.250   0.1370   0.04126   0.03101  -0.0556   0.8868   1.0000
   1.500   0.1600   0.04244   0.03204  -0.0563   0.8800   1.0000
   1.750   0.1751   0.04346   0.03295  -0.0559   0.8759   1.0000
   2.000   0.2100   0.04503   0.03438  -0.0582   0.8669   1.0000
   2.250   0.2190   0.04600   0.03528  -0.0571   0.8637   1.0000
   2.500   0.2324   0.04721   0.03642  -0.0567   0.8619   1.0000
   2.750   0.2464   0.04852   0.03766  -0.0564   0.8607   1.0000
   3.000   0.2591   0.05001   0.03910  -0.0562   0.8635   1.0000
   3.000   0.2591   0.05001   0.03910  -0.0562   0.8635   1.0000
   3.100   0.2659   0.05072   0.03979  -0.0565   0.8652   1.0000
   3.200   0.2767   0.05168   0.04072  -0.0573   0.8674   1.0000
   3.250   0.2934   0.05179   0.04081  -0.0585   0.8512   1.0000
   3.350   0.3010   0.05254   0.04154  -0.0588   0.8521   1.0000
   4.750   0.3305   0.06130   0.05024  -0.0542   0.8982   1.0000
   4.850   0.3300   0.06115   0.05011  -0.0531   0.8912   1.0000
   4.950   0.3456   0.06235   0.05131  -0.0546   0.8856   1.0000
   5.250   0.3711   0.06462   0.05360  -0.0558   0.8705   1.0000
   5.500   0.3886   0.06634   0.05533  -0.0563   0.8575   1.0000
   5.750   0.4081   0.06835   0.05738  -0.0571   0.8456   1.0000
   6.000   0.4341   0.07092   0.05999  -0.0588   0.8341   1.0000
   6.250   0.4647   0.07373   0.06284  -0.0611   0.8202   1.0000
   6.500   0.4803   0.07535   0.06452  -0.0612   0.8057   1.0000
   6.750   0.4934   0.07700   0.06623  -0.0611   0.7917   1.0000
   7.000   0.5067   0.07891   0.06819  -0.0611   0.7786   1.0000
   7.250   0.5231   0.08109   0.07046  -0.0616   0.7653   1.0000
   7.500   0.5415   0.08348   0.07294  -0.0623   0.7525   1.0000
   7.750   0.5632   0.08613   0.07567  -0.0634   0.7394   1.0000
   8.000   0.5838   0.08867   0.07833  -0.0642   0.7248   1.0000
   8.250   0.6026   0.09113   0.08089  -0.0649   0.7097   1.0000
   8.500   0.6200   0.09357   0.08343  -0.0653   0.6943   1.0000
   8.750   0.6352   0.09593   0.08590  -0.0656   0.6787   1.0000
   9.000   0.6487   0.09827   0.08835  -0.0657   0.6628   1.0000
   9.250   0.6788   0.10007   0.09031  -0.0659   0.6327   1.0000
   9.500   0.7667   0.09308   0.08357  -0.0612   0.5349   1.0000
   9.750   0.7871   0.09444   0.08509  -0.0607   0.5170   1.0000
  10.000   0.8362   0.09343   0.08434  -0.0596   0.4954   1.0000
  10.250   0.8385   0.09571   0.08676  -0.0588   0.4773   1.0000
  10.500   0.8568   0.09647   0.08769  -0.0575   0.4562   1.0000
  10.750   0.8992   0.09419   0.08570  -0.0551   0.4322   1.0000
  11.000   0.9666   0.08666   0.07862  -0.0501   0.4028   1.0000
  11.250   1.1961   0.04648   0.03852  -0.0308   0.2786   1.0000
  11.500   1.1883   0.04903   0.04046  -0.0277   0.2331   1.0000
  11.750   1.1934   0.05138   0.04216  -0.0254   0.1973   1.0000
  12.000   1.2017   0.05396   0.04465  -0.0237   0.1729   1.0000
  12.250   1.2281   0.05599   0.04647  -0.0225   0.1512   1.0000
  12.500   1.2576   0.05839   0.04892  -0.0218   0.1361   1.0000
  12.750   1.2868   0.06116   0.05171  -0.0214   0.1247   1.0000
  13.000   1.2960   0.06455   0.05543  -0.0204   0.1191   1.0000
  13.250   1.3210   0.06825   0.05920  -0.0203   0.1126   1.0000
  13.500   1.3066   0.07219   0.06354  -0.0187   0.1111   1.0000
  13.750   1.2905   0.07654   0.06824  -0.0177   0.1099   1.0000
  14.000   1.2713   0.08140   0.07343  -0.0172   0.1093   1.0000
  14.250   1.2476   0.08689   0.07923  -0.0174   0.1093   1.0000
  14.500   1.2197   0.09315   0.08576  -0.0184   0.1099   1.0000
  14.750   1.1878   0.10039   0.09323  -0.0206   0.1108   1.0000
  15.000   1.1572   0.10835   0.10138  -0.0236   0.1121   1.0000
  15.250   1.1288   0.11700   0.11016  -0.0274   0.1132   1.0000
  15.250   1.1141   0.11903   0.11226  -0.0292   0.1150   1.0000
  15.350   1.1127   0.12139   0.11463  -0.0298   0.1144   1.0000
  15.500   1.0243   0.14345   0.13665  -0.0445   0.1273   1.0000
  16.000   0.9465   0.18020   0.17310  -0.0671   0.1554   1.0000
  16.250   0.6739   0.18325   0.17685  -0.0686   0.2633   1.0000
  16.500   0.6950   0.18924   0.18291  -0.0687   0.2554   1.0000
  16.750   0.6814   0.18977   0.18345  -0.0710   0.2502   1.0000
  17.000   0.6966   0.19440   0.18816  -0.0714   0.2422   1.0000
  17.250   0.6909   0.19655   0.19031  -0.0733   0.2377   1.0000
  17.500   0.6985   0.19987   0.19369  -0.0742   0.2288   1.0000
  17.750   0.7066   0.20453   0.19839  -0.0752   0.2255   1.0000
  18.000   0.7004   0.20585   0.19974  -0.0773   0.2186   1.0000
  18.250   0.7224   0.21274   0.20669  -0.0771   0.2117   1.0000
  18.500   0.7087   0.21257   0.20652  -0.0799   0.2069   1.0000
  18.750   0.7177   0.21634   0.21035  -0.0807   0.1998   1.0000
  19.000   0.7267   0.22140   0.21543  -0.0817   0.1967   1.0000
  19.250   0.7202   0.22254   0.21660  -0.0840   0.1909   1.0000
  19.500   0.7338   0.22734   0.22145  -0.0843   0.1842   1.0000
  19.750   0.7317   0.23011   0.22423  -0.0864   0.1809   1.0000
  20.000   0.7332   0.23280   0.22697  -0.0881   0.1740   1.0000
   0.000   0.0180   0.03606   0.02683  -0.0519   0.9195   1.0000
  -0.250  -0.0044   0.03521   0.02625  -0.0514   0.9255   1.0000
  -0.500  -0.0298   0.03430   0.02566  -0.0505   0.9323   1.0000
  -0.750  -0.0583   0.03337   0.02514  -0.0490   0.9393   1.0000
  -1.000  -0.0810   0.03267   0.02489  -0.0485   0.9455   1.0000
  -1.250  -0.1187   0.03306   0.02453  -0.0496   0.9529   0.5296
  -1.500  -0.1430   0.03486   0.02469  -0.0502   0.9592   0.3262
  -1.750  -0.1813   0.03532   0.02487  -0.0480   0.9662   0.2636
  -2.000  -0.2094   0.03585   0.02533  -0.0475   0.9725   0.2333
  -2.250  -0.2475   0.03628   0.02586  -0.0452   0.9798   0.2074
  -2.500  -0.2830   0.03702   0.02676  -0.0432   0.9866   0.1903
  -2.750  -0.3207   0.03805   0.02818  -0.0408   0.9935   0.1772
  -3.000  -0.3609   0.03943   0.02998  -0.0377   1.0000   0.1667
  -3.250  -0.3838   0.04115   0.03213  -0.0377   1.0000   0.1621
  -3.500  -0.4039   0.04294   0.03408  -0.0378   1.0000   0.1576
  -3.750  -0.4258   0.04543   0.03703  -0.0374   1.0000   0.1546
  -4.000  -0.4469   0.04841   0.04039  -0.0369   1.0000   0.1556
  -4.250  -0.4741   0.05352   0.04657  -0.0338   1.0000   0.1661
  -4.500  -0.4931   0.05756   0.05095  -0.0325   1.0000   0.1742
  -4.500  -0.5005   0.06061   0.05447  -0.0284   1.0000   0.1938
  -4.600  -0.5021   0.06076   0.05440  -0.0306   1.0000   0.1864
  -4.750  -0.4876   0.08375   0.07883   0.0216   1.0000   0.4700
  -4.850  -0.4911   0.08472   0.07978   0.0199   1.0000   0.4573
  -4.950  -0.5056   0.08613   0.08123   0.0182   1.0000   0.4446
  -5.250  -0.4990   0.08821   0.08324   0.0132   1.0000   0.4116
  -5.500  -0.4801   0.08948   0.08442   0.0098   1.0000   0.3912
  -5.750  -0.4702   0.09120   0.08607   0.0065   1.0000   0.3741
  -6.000  -0.4607   0.09301   0.08781   0.0031   1.0000   0.3600
  -6.250  -0.4618   0.09552   0.09028   0.0003   1.0000   0.3467
  -6.500  -0.4668   0.09831   0.09304  -0.0025   1.0000   0.3319
  -6.750  -0.4176   0.09720   0.09174  -0.0070   1.0000   0.3263
  -7.000  -0.4256   0.10024   0.09476  -0.0094   1.0000   0.3149
  -7.250  -0.3929   0.09992   0.09429  -0.0129   1.0000   0.3069
  -7.500  -0.3910   0.10229   0.09660  -0.0156   1.0000   0.2978
  -7.750  -0.3759   0.10302   0.09724  -0.0187   1.0000   0.2879
  -8.000  -0.3632   0.10457   0.09868  -0.0215   1.0000   0.2810
  -8.250  -0.3518   0.10546   0.09949  -0.0247   1.0000   0.2716
  -8.500  -0.3414   0.10717   0.10110  -0.0275   1.0000   0.2656
  -8.750  -0.3198   0.10712   0.10091  -0.0308   1.0000   0.2582
  -9.000  -0.3265   0.11031   0.10405  -0.0336   1.0000   0.2506
  -9.250  -0.2986   0.10961   0.10317  -0.0360   1.0000   0.2446
  -9.500  -0.3232   0.11493   0.10852  -0.0384   1.0000   0.2355
  -9.750  -0.2922   0.11371   0.10707  -0.0388   1.0000   0.2309
 -10.000  -0.3031   0.11702   0.11036  -0.0399   1.0000   0.2218
 -10.250  -0.2995   0.11954   0.11277  -0.0395   1.0000   0.2174
 -10.500  -0.2973   0.12136   0.11450  -0.0390   1.0000   0.2088
 -10.750  -0.3145   0.12643   0.11956  -0.0395   1.0000   0.2028
 -11.000  -0.3022   0.12694   0.11996  -0.0378   1.0000   0.1960
 -11.250  -0.3321   0.13388   0.12692  -0.0392   1.0000   0.1875
 -11.500  -0.3136   0.13326   0.12618  -0.0365   1.0000   0.1837
 -11.750  -0.3201   0.13613   0.12902  -0.0359   1.0000   0.1761
 -12.000  -0.3449   0.14312   0.13603  -0.0365   1.0000   0.1716
 -12.250  -0.3289   0.14242   0.13521  -0.0337   1.0000   0.1680
 -12.500  -0.3334   0.14507   0.13784  -0.0326   1.0000   0.1619
 -12.750  -0.3709   0.15488   0.14770  -0.0341   1.0000   0.1562
 -13.000  -0.3545   0.15353   0.14625  -0.0310   1.0000   0.1549
 -13.250  -0.3504   0.15434   0.14701  -0.0289   1.0000   0.1502
 -13.500  -0.3597   0.15767   0.15032  -0.0280   1.0000   0.1447
 -13.750  -0.3852   0.16593   0.15859  -0.0284   1.0000   0.1403
 -14.000  -0.3739   0.16465   0.15724  -0.0255   1.0000   0.1382
 -14.250  -0.3766   0.16653   0.15908  -0.0236   1.0000   0.1335
 -14.500  -0.3873   0.17018   0.16274  -0.0227   1.0000   0.1288
 -14.750  -0.4192   0.18119   0.17378  -0.0235   1.0000   0.1253
 -15.000  -0.4098   0.17953   0.17205  -0.0206   1.0000   0.1245
 -15.250  -0.4072   0.17950   0.17197  -0.0179   1.0000   0.1218
 -15.500  -0.4133   0.18199   0.17444  -0.0161   1.0000   0.1178
 -15.750  -0.4231   0.18536   0.17781  -0.0148   1.0000   0.1145
 -16.000  -0.4425   0.19237   0.18485  -0.0148   1.0000   0.1112
 -16.250  -0.4525   0.19738   0.18981  -0.0133   1.0000   0.1099
 -16.500  -0.4492   0.19606   0.18845  -0.0102   1.0000   0.1085
 -16.750  -0.4533   0.19743   0.18980  -0.0078   1.0000   0.1049
 -17.000  -0.4618   0.20030   0.19266  -0.0061   1.0000   0.1018
 -17.250  -0.4733   0.20428   0.19664  -0.0051   1.0000   0.0984
 -17.500  -0.5033   0.21823   0.21063  -0.0059   1.0000   0.0958
 -17.750  -0.4994   0.21577   0.20811  -0.0028   1.0000   0.0954
 -18.000  -0.4989   0.21449   0.20679   0.0004   1.0000   0.0942
 -18.250  -0.5047   0.21589   0.20817   0.0029   1.0000   0.0922
 -18.500  -0.5125   0.21841   0.21067   0.0049   1.0000   0.0895
 -18.750  -0.5217   0.22143   0.21369   0.0067   1.0000   0.0872
 -19.000  -0.5321   0.22503   0.21731   0.0082   1.0000   0.0849
 -19.250  -0.5466   0.23131   0.22361   0.0089   1.0000   0.0829
 -19.500  -0.5648   0.24150   0.23380   0.0096   1.0000   0.0819
 -19.750  -0.5641   0.23867   0.23092   0.0129   1.0000   0.0814
 -20.000  -0.5669   0.23762   0.22984   0.0161   1.0000   0.0801
