  
       XFOIL         Version 6.99
  
 Calculated polar for: AG12                                            
  
 1 1 Reynolds number fixed          Mach number fixed         
  
 xtrf =   1.000 (top)        1.000 (bottom)  
 Mach =   0.000     Re =     0.050 e 6     Ncrit =   9.000
  
   alpha    CL        CD       CDp       CM     Top_Xtr  Bot_Xtr
  ------ -------- --------- --------- -------- -------- --------
   0.000   0.1477   0.01419   0.00402  -0.0357   1.0000   1.0000
   0.250   0.1722   0.01435   0.00412  -0.0356   1.0000   1.0000
   0.500   0.1963   0.01455   0.00428  -0.0355   1.0000   1.0000
   0.750   0.2200   0.01481   0.00452  -0.0354   1.0000   1.0000
   1.000   0.2433   0.01514   0.00485  -0.0356   1.0000   1.0000
   1.250   0.2661   0.01557   0.00530  -0.0359   1.0000   1.0000
   1.500   0.2880   0.01612   0.00588  -0.0364   1.0000   1.0000
   1.750   0.3087   0.01684   0.00666  -0.0373   1.0000   1.0000
   2.000   0.3281   0.01777   0.00766  -0.0385   1.0000   1.0000
   2.250   0.4221   0.01852   0.00872  -0.0525   0.9551   1.0000
   2.500   0.5003   0.01864   0.00916  -0.0612   0.9059   1.0000
   2.750   0.5522   0.01856   0.00933  -0.0633   0.8582   1.0000
   3.000   0.5819   0.01870   0.00954  -0.0613   0.8091   1.0000
   3.250   0.6055   0.01892   0.00974  -0.0579   0.7624   1.0000
   3.500   0.6267   0.01927   0.01005  -0.0545   0.7152   1.0000
   3.750   0.6478   0.01971   0.01049  -0.0514   0.6676   1.0000
   4.000   0.6695   0.02022   0.01087  -0.0484   0.6209   1.0000
   4.250   0.6915   0.02086   0.01144  -0.0460   0.5712   1.0000
   4.500   0.7138   0.02155   0.01196  -0.0435   0.5238   1.0000
   4.750   0.7362   0.02239   0.01273  -0.0416   0.4736   1.0000
   5.000   0.7588   0.02329   0.01349  -0.0396   0.4261   1.0000
   5.250   0.7815   0.02436   0.01450  -0.0380   0.3772   1.0000
   5.500   0.8042   0.02553   0.01551  -0.0364   0.3320   1.0000
   5.750   0.8271   0.02690   0.01675  -0.0350   0.2895   1.0000
   6.000   0.8502   0.02859   0.01848  -0.0338   0.2509   1.0000
   6.250   0.8726   0.03034   0.02019  -0.0326   0.2156   1.0000
   6.500   0.8957   0.03269   0.02274  -0.0315   0.1881   1.0000
   6.750   0.9180   0.03506   0.02515  -0.0305   0.1637   1.0000
   7.000   0.9390   0.03820   0.02877  -0.0295   0.1451   1.0000
   7.250   0.9586   0.04156   0.03250  -0.0285   0.1303   1.0000
   7.500   0.9761   0.04589   0.03726  -0.0277   0.1219   1.0000
   7.750   0.9927   0.04935   0.04089  -0.0270   0.1106   1.0000
   8.000   0.9996   0.05532   0.04768  -0.0268   0.1088   1.0000
   8.250   1.0022   0.06174   0.05468  -0.0272   0.1089   1.0000
   8.500   1.0016   0.06828   0.06160  -0.0281   0.1099   1.0000
   8.750   0.9992   0.07472   0.06828  -0.0293   0.1108   1.0000
   9.000   0.9958   0.08112   0.07488  -0.0308   0.1120   1.0000
   9.000   0.9958   0.08112   0.07488  -0.0308   0.1120   1.0000
   9.500   0.9053   0.10994   0.10373  -0.0598   0.1624   1.0000
   9.750   0.8594   0.12774   0.12125  -0.0817   0.2855   1.0000
   9.500   0.8674   0.12334   0.11691  -0.0799   0.2899   1.0000
   9.600   0.8805   0.12667   0.12028  -0.0791   0.2884   1.0000
   9.700   0.8667   0.12746   0.12101  -0.0809   0.2872   1.0000
  10.000   0.8636   0.13224   0.12577  -0.0820   0.2769   1.0000
  10.250   0.8588   0.13658   0.13005  -0.0834   0.2711   1.0000
  10.500   0.8698   0.14173   0.13524  -0.0828   0.2598   1.0000
  10.750   0.8756   0.14616   0.13973  -0.0826   0.2464   1.0000
  11.000   0.8642   0.14883   0.14234  -0.0848   0.2379   1.0000
  11.250   0.8709   0.15390   0.14741  -0.0852   0.2314   1.0000
  11.500   0.8718   0.15761   0.15111  -0.0862   0.2227   1.0000
  11.750   0.8763   0.16255   0.15604  -0.0871   0.2179   1.0000
  12.000   0.8758   0.16587   0.15934  -0.0885   0.2096   1.0000
  12.250   0.8809   0.17061   0.16406  -0.0893   0.2038   1.0000
  12.500   0.8982   0.17669   0.17019  -0.0882   0.1920   1.0000
  12.750   0.8846   0.17786   0.17128  -0.0920   0.1879   1.0000
  13.000   0.9105   0.18591   0.17940  -0.0899   0.1787   1.0000
  13.250   0.8952   0.18616   0.17956  -0.0943   0.1757   1.0000
  13.500   0.9003   0.18978   0.18317  -0.0955   0.1689   1.0000
  13.750   0.9165   0.19678   0.19020  -0.0952   0.1647   1.0000
  14.000   0.9086   0.19748   0.19084  -0.0990   0.1604   1.0000
  14.250   0.9196   0.20213   0.19552  -0.0994   0.1539   1.0000
  14.500   0.9268   0.20702   0.20038  -0.1007   0.1505   1.0000
  14.750   0.9263   0.20873   0.20206  -0.1038   0.1449   1.0000
  15.000   0.9476   0.21733   0.21070  -0.1021   0.1380   1.0000
  15.250   0.9410   0.21689   0.21019  -0.1067   0.1355   1.0000
  15.500   0.9466   0.21993   0.21323  -0.1087   0.1298   1.0000
  15.750   0.9728   0.23145   0.22489  -0.1060   0.1249   1.0000
  16.000   0.9660   0.22990   0.22326  -0.1108   0.1239   1.0000
  16.250   0.9673   0.23116   0.22449  -0.1144   0.1202   1.0000
  16.500   0.9755   0.23480   0.22813  -0.1161   0.1158   1.0000
  16.750   1.0000   0.24724   0.24064  -0.1133   0.1117   1.0000
  17.000   0.9956   0.24520   0.23854  -0.1182   0.1109   1.0000
  17.250   0.9976   0.24593   0.23923  -0.1222   0.1081   1.0000
  17.500   1.0050   0.24911   0.24242  -0.1244   0.1041   1.0000
  17.750   1.0169   0.25441   0.24776  -0.1247   0.1001   1.0000
  18.000   1.0286   0.26153   0.25487  -0.1253   0.0982   1.0000
  18.250   1.0298   0.26070   0.25400  -0.1300   0.0963   1.0000
  18.500   1.0365   0.26317   0.25646  -0.1328   0.0924   1.0000
  18.750   1.0459   0.26709   0.26040  -0.1342   0.0886   1.0000
  19.000   1.0657   0.28074   0.27411  -0.1317   0.0856   1.0000
  19.250   1.0662   0.27848   0.27180  -0.1364   0.0851   1.0000
  19.500   1.0700   0.27823   0.27153  -0.1407   0.0837   1.0000
  19.750   1.0769   0.28049   0.27378  -0.1437   0.0811   1.0000
  20.000   1.0852   0.28373   0.27709  -0.1459   0.0784   1.0000
   0.000   0.1477   0.01419   0.00402  -0.0357   1.0000   1.0000
  -0.250   0.1228   0.01406   0.00402  -0.0359   1.0000   1.0000
  -0.500   0.0977   0.01397   0.00406  -0.0361   1.0000   1.0000
  -0.750   0.0722   0.01389   0.00415  -0.0363   1.0000   1.0000
  -1.000   0.0465   0.01384   0.00431  -0.0365   1.0000   1.0000
  -1.250   0.0204   0.01382   0.00458  -0.0366   1.0000   1.0000
  -1.500  -0.0063   0.01381   0.00490  -0.0366   1.0000   1.0000
  -1.750  -0.0340   0.01382   0.00534  -0.0363   1.0000   1.0000
  -2.000  -0.0647   0.01387   0.00602  -0.0350   1.0000   1.0000
  -2.250  -0.0959   0.01548   0.00725  -0.0365   1.0000   0.6785
  -2.500  -0.1095   0.01705   0.00795  -0.0413   1.0000   0.4985
  -2.750  -0.1313   0.01879   0.00879  -0.0435   1.0000   0.3283
  -3.000  -0.1575   0.02061   0.01017  -0.0445   1.0000   0.2214
  -3.250  -0.1844   0.02257   0.01200  -0.0453   1.0000   0.1719
  -3.500  -0.2122   0.02457   0.01413  -0.0458   1.0000   0.1428
  -3.750  -0.2413   0.02708   0.01698  -0.0461   1.0000   0.1296
  -4.000  -0.2694   0.02965   0.01990  -0.0461   1.0000   0.1176
  -4.250  -0.3001   0.03328   0.02420  -0.0454   1.0000   0.1170
  -4.500  -0.3293   0.03741   0.02882  -0.0443   1.0000   0.1191
  -4.750  -0.3580   0.04178   0.03370  -0.0426   1.0000   0.1212
  -5.000  -0.3897   0.04814   0.04075  -0.0383   1.0000   0.1351
  -5.500  -0.4841   0.07363   0.06762   0.0085   1.0000   0.3423
  -5.750  -0.4935   0.07660   0.07055   0.0101   1.0000   0.3158
  -6.000  -0.5011   0.08003   0.07391   0.0126   1.0000   0.2965
  -5.750  -0.4935   0.07660   0.07055   0.0101   1.0000   0.3158
  -5.850  -0.4948   0.07772   0.07163   0.0123   1.0000   0.3058
  -5.950  -0.5029   0.07963   0.07354   0.0099   1.0000   0.3014
  -6.250  -0.5098   0.08346   0.07729   0.0140   1.0000   0.2794
  -6.500  -0.5182   0.08702   0.08080   0.0151   1.0000   0.2649
  -6.750  -0.5256   0.09059   0.08431   0.0163   1.0000   0.2522
  -7.000  -0.5338   0.09439   0.08806   0.0169   1.0000   0.2413
  -7.250  -0.5501   0.09932   0.09298   0.0147   1.0000   0.2304
  -7.750  -0.5461   0.10435   0.09782   0.0198   1.0000   0.2123
  -8.000  -0.5638   0.10972   0.10325   0.0181   1.0000   0.2025
  -8.250  -0.5550   0.11104   0.10446   0.0215   1.0000   0.1948
  -8.500  -0.5645   0.11544   0.10882   0.0215   1.0000   0.1874
  -8.250  -0.5550   0.11104   0.10446   0.0215   1.0000   0.1948
  -8.350  -0.5748   0.11533   0.10880   0.0183   1.0000   0.1890
  -8.450  -0.5677   0.11538   0.10878   0.0205   1.0000   0.1882
  -8.750  -0.5727   0.11905   0.11241   0.0215   1.0000   0.1769
  -9.000  -0.5704   0.12188   0.11515   0.0238   1.0000   0.1725
  -9.250  -0.5937   0.12871   0.12202   0.0211   1.0000   0.1615
  -9.500  -0.5804   0.12906   0.12224   0.0256   1.0000   0.1593
  -9.750  -0.5827   0.13186   0.12501   0.0270   1.0000   0.1521
 -10.000  -0.5992   0.13810   0.13124   0.0259   1.0000   0.1473
 -10.250  -0.5910   0.13901   0.13207   0.0293   1.0000   0.1437
 -10.500  -0.5971   0.14248   0.13552   0.0302   1.0000   0.1379
 -10.750  -0.6155   0.14952   0.14257   0.0289   1.0000   0.1337
 -11.000  -0.6073   0.15003   0.14300   0.0324   1.0000   0.1315
 -11.250  -0.6098   0.15276   0.14570   0.0341   1.0000   0.1266
 -11.500  -0.6275   0.15912   0.15209   0.0330   1.0000   0.1213
 -11.750  -0.6309   0.16283   0.15574   0.0346   1.0000   0.1197
 -12.000  -0.6271   0.16374   0.15659   0.0376   1.0000   0.1171
 -12.250  -0.6316   0.16670   0.15953   0.0391   1.0000   0.1129
 -12.500  -0.6429   0.17142   0.16426   0.0393   1.0000   0.1087
 -12.750  -0.6581   0.17867   0.17156   0.0390   1.0000   0.1064
 -13.000  -0.6541   0.17876   0.17159   0.0423   1.0000   0.1052
 -13.250  -0.6564   0.18068   0.17347   0.0446   1.0000   0.1022
 -13.500  -0.6630   0.18392   0.17670   0.0461   1.0000   0.0987
 -13.750  -0.6735   0.18843   0.18122   0.0465   1.0000   0.0954
 -14.000  -0.6922   0.19763   0.19042   0.0458   1.0000   0.0930
 -14.250  -0.6897   0.19713   0.18987   0.0491   1.0000   0.0923
 -14.500  -0.6918   0.19806   0.19077   0.0519   1.0000   0.0903
 -14.750  -0.6981   0.20078   0.19346   0.0539   1.0000   0.0872
 -15.000  -0.7064   0.20426   0.19695   0.0552   1.0000   0.0839
 -15.250  -0.7330   0.21834   0.21107   0.0526   1.0000   0.0798
 -15.500  -0.7312   0.21709   0.20977   0.0559   1.0000   0.0795
 -15.750  -0.7323   0.21655   0.20920   0.0593   1.0000   0.0787
 -16.000  -0.7374   0.21786   0.21047   0.0621   1.0000   0.0767
 -16.250  -0.7449   0.22062   0.21322   0.0642   1.0000   0.0742
 -16.500  -0.7533   0.22386   0.21646   0.0659   1.0000   0.0718
 -16.750  -0.7624   0.22756   0.22017   0.0673   1.0000   0.0696
 -17.000  -0.7739   0.23335   0.22604   0.0677   1.0000   0.0676
 -17.250  -0.7902   0.24428   0.23697   0.0674   1.0000   0.0664
 -17.500  -0.7927   0.24322   0.23587   0.0707   1.0000   0.0661
 -17.750  -0.7972   0.24307   0.23569   0.0739   1.0000   0.0655
 -18.000  -0.8039   0.24430   0.23691   0.0768   1.0000   0.0643
 -18.250  -0.8119   0.24675   0.23935   0.0792   1.0000   0.0626
 -18.500  -0.8204   0.24970   0.24230   0.0814   1.0000   0.0609
 -18.750  -0.8291   0.25283   0.24544   0.0833   1.0000   0.0592
 -19.000  -0.8380   0.25616   0.24877   0.0852   1.0000   0.0576
 -19.250  -0.8472   0.25992   0.25253   0.0867   1.0000   0.0560
 -19.500  -0.8575   0.26545   0.25809   0.0876   1.0000   0.0546
 -19.750  -0.8743   0.28059   0.27324   0.0866   1.0000   0.0535
 -20.000  -0.8786   0.27914   0.27176   0.0899   1.0000   0.0533
