  
       XFOIL         Version 6.99
  
 Calculated polar for: St. CYR 234 (Bartel 17-IC)                      
  
 1 1 Reynolds number fixed          Mach number fixed         
  
 xtrf =   1.000 (top)        1.000 (bottom)  
 Mach =   0.000     Re =     0.050 e 6     Ncrit =   9.000
  
   alpha    CL        CD       CDp       CM     Top_Xtr  Bot_Xtr
  ------ -------- --------- --------- -------- -------- --------
   0.000   0.3925   0.05650   0.04796  -0.0684   0.7186   1.0000
   0.250   0.4258   0.05697   0.04816  -0.0694   0.6998   1.0000
   0.500   0.4565   0.05737   0.04838  -0.0697   0.6811   1.0000
   0.750   0.4859   0.05774   0.04861  -0.0696   0.6626   1.0000
   0.750   0.4859   0.05774   0.04861  -0.0696   0.6626   1.0000
   0.850   0.5139   0.05726   0.04805  -0.0709   0.6583   1.0000
   0.950   0.5091   0.05800   0.04878  -0.0695   0.6480   1.0000
   1.250   0.5472   0.05803   0.04869  -0.0693   0.6259   1.0000
   1.250   0.5472   0.05803   0.04869  -0.0693   0.6259   1.0000
   1.350   0.5690   0.05753   0.04816  -0.0698   0.6206   1.0000
   1.450   0.5989   0.05659   0.04716  -0.0709   0.6174   1.0000
   1.750   0.6370   0.05626   0.04677  -0.0703   0.5973   1.0000
   2.000   0.6583   0.05658   0.04704  -0.0691   0.5788   1.0000
   2.250   0.6786   0.05699   0.04741  -0.0679   0.5609   1.0000
   2.250   0.6786   0.05699   0.04741  -0.0679   0.5609   1.0000
   2.350   0.7082   0.05548   0.04588  -0.0685   0.5586   1.0000
   2.750   0.7680   0.05371   0.04403  -0.0677   0.5386   1.0000
   2.750   0.7680   0.05371   0.04403  -0.0677   0.5386   1.0000
   3.000   0.7737   0.05550   0.04580  -0.0659   0.5216   1.0000
   3.100   0.8048   0.05345   0.04373  -0.0663   0.5202   1.0000
   3.500   0.8266   0.05531   0.04556  -0.0641   0.4984   1.0000
   3.750   0.8423   0.05639   0.04662  -0.0629   0.4859   1.0000
   4.000   0.9893   0.04573   0.03582  -0.0683   0.4825   1.0000
   4.250   0.9344   0.05252   0.04268  -0.0627   0.4672   1.0000
   4.500   0.8535   0.06429   0.05452  -0.0593   0.4505   1.0000
   4.750   1.1159   0.04375   0.03358  -0.0707   0.4408   1.0000
   5.000   1.1914   0.04260   0.03218  -0.0761   0.4236   1.0000
   5.250   1.1450   0.04650   0.03632  -0.0679   0.4164   1.0000
   5.250   1.1450   0.04650   0.03632  -0.0679   0.4164   1.0000
   5.350   1.2391   0.04397   0.03341  -0.0775   0.4042   1.0000
   5.450   1.2185   0.04529   0.03486  -0.0736   0.4022   1.0000
   5.750   1.1782   0.04936   0.03917  -0.0657   0.3933   1.0000
   6.000   1.2207   0.04984   0.03956  -0.0673   0.3801   1.0000
   6.250   1.1540   0.05557   0.04556  -0.0589   0.3756   1.0000
   6.500   1.0889   0.06319   0.05336  -0.0534   0.3697   1.0000
   6.750   1.2975   0.05363   0.04320  -0.0671   0.3442   1.0000
   7.000   1.2244   0.05901   0.04892  -0.0576   0.3423   1.0000
   7.250   1.0361   0.07843   0.06875  -0.0488   0.3441   1.0000
   7.500   0.7977   0.11761   0.10809  -0.0572   0.3430   1.0000
   7.750   0.7694   0.12593   0.11646  -0.0594   0.3418   1.0000
   8.000   0.7584   0.13227   0.12284  -0.0611   0.3418   1.0000
   8.250   0.7570   0.13780   0.12840  -0.0625   0.3428   1.0000
   8.500   0.7707   0.14271   0.13335  -0.0635   0.3442   1.0000
   9.750   0.7117   0.16922   0.16002  -0.0742   0.3882   1.0000
  10.000   0.7360   0.17508   0.16589  -0.0751   0.3837   1.0000
  10.250   0.7181   0.17456   0.16535  -0.0757   0.3728   1.0000
  10.500   0.7498   0.17986   0.17069  -0.0760   0.3656   1.0000
  10.750   0.7395   0.18139   0.17219  -0.0771   0.3606   1.0000
  11.000   0.7442   0.18329   0.17410  -0.0778   0.3510   1.0000
  11.250   0.7798   0.18996   0.18080  -0.0781   0.3451   1.0000
  11.500   0.7595   0.18924   0.18004  -0.0795   0.3384   1.0000
  11.750   0.7705   0.19188   0.18270  -0.0802   0.3302   1.0000
  12.000   0.8032   0.19877   0.18963  -0.0805   0.3256   1.0000
  12.250   0.7847   0.19783   0.18864  -0.0822   0.3200   1.0000
  12.500   0.7937   0.20009   0.19091  -0.0830   0.3115   1.0000
  12.750   0.8228   0.20635   0.19721  -0.0831   0.3068   1.0000
  13.000   0.8133   0.20680   0.19763  -0.0849   0.3029   1.0000
  13.250   0.8151   0.20806   0.19888  -0.0862   0.2952   1.0000
  13.500   0.8328   0.21191   0.20276  -0.0867   0.2900   1.0000
  13.750   0.8657   0.22119   0.21207  -0.0869   0.2870   1.0000
  14.000   0.8393   0.21627   0.20710  -0.0895   0.2807   1.0000
  14.250   0.8495   0.21879   0.20965  -0.0905   0.2743   1.0000
  14.500   0.8685   0.22342   0.21431  -0.0909   0.2706   1.0000
  14.750   0.8946   0.23209   0.22300  -0.0914   0.2685   1.0000
  15.000   0.8717   0.22700   0.21788  -0.0943   0.2636   1.0000
  15.250   0.8791   0.22907   0.21995  -0.0956   0.2576   1.0000
  15.500   0.8949   0.23289   0.22381  -0.0962   0.2534   1.0000
  15.750   0.9222   0.24164   0.23262  -0.0963   0.2509   1.0000
  16.000   0.9089   0.23889   0.22982  -0.0991   0.2484   1.0000
  16.250   0.9092   0.23934   0.23028  -0.1010   0.2430   1.0000
  16.500   0.9186   0.24189   0.23285  -0.1022   0.2387   1.0000
  16.750   0.9337   0.24594   0.23695  -0.1029   0.2352   1.0000
  17.000   0.9606   0.25580   0.24688  -0.1030   0.2330   1.0000
  17.250   0.9475   0.25190   0.24293  -0.1060   0.2309   1.0000
  17.500   0.9473   0.25186   0.24289  -0.1082   0.2257   1.0000
  17.750   0.9559   0.25427   0.24534  -0.1096   0.2217   1.0000
  18.000   0.9683   0.25778   0.24889  -0.1105   0.2185   1.0000
  18.250   0.9884   0.26505   0.25623  -0.1108   0.2162   1.0000
  18.500   0.9923   0.26763   0.25880  -0.1127   0.2146   1.0000
  18.750   0.9851   0.26449   0.25566  -0.1158   0.2105   1.0000
  19.000   0.9916   0.26640   0.25760  -0.1174   0.2063   1.0000
  19.250   1.0018   0.26935   0.26059  -0.1186   0.2028   1.0000
  19.500   1.0174   0.27477   0.26608  -0.1192   0.2001   1.0000
  19.750   1.0358   0.28421   0.27556  -0.1199   0.1985   1.0000
  20.000   1.0224   0.27731   0.26864  -0.1236   0.1956   1.0000
   0.000   0.3925   0.05650   0.04796  -0.0684   0.7186   1.0000
  -0.250   0.3339   0.05626   0.04808  -0.0626   0.7389   0.7914
  -0.500   0.2789   0.05754   0.04813  -0.0590   0.7581   0.6330
  -0.750   0.2239   0.05811   0.04856  -0.0554   0.7795   0.5668
  -1.000   0.1747   0.05812   0.04851  -0.0534   0.8054   0.5143
  -1.250   0.1193   0.05791   0.04819  -0.0511   0.8432   0.4632
  -1.500  -0.0022   0.05685   0.04685  -0.0396   0.9478   0.3896
  -1.750  -0.0416   0.05494   0.04496  -0.0362   0.9655   0.3616
  -2.000  -0.0758   0.05346   0.04349  -0.0336   0.9798   0.3410
  -2.250  -0.1124   0.05178   0.04185  -0.0305   0.9921   0.3224
  -2.500  -0.1481   0.05004   0.04000  -0.0278   1.0000   0.3099
  -2.750  -0.1673   0.04991   0.04019  -0.0275   1.0000   0.3007
  -3.000  -0.1833   0.04974   0.04000  -0.0280   1.0000   0.2936
  -3.250  -0.2002   0.04989   0.04017  -0.0283   1.0000   0.2876
  -3.500  -0.2203   0.05032   0.04091  -0.0279   1.0000   0.2814
  -3.750  -0.2393   0.05084   0.04160  -0.0278   1.0000   0.2772
  -4.000  -0.2580   0.05151   0.04239  -0.0278   1.0000   0.2743
  -4.250  -0.2767   0.05236   0.04334  -0.0277   1.0000   0.2724
  -4.500  -0.2936   0.05323   0.04419  -0.0283   1.0000   0.2700
  -4.750  -0.3142   0.05483   0.04604  -0.0273   1.0000   0.2686
  -5.000  -0.3360   0.05682   0.04833  -0.0258   1.0000   0.2680
  -5.250  -0.3560   0.05890   0.05060  -0.0247   1.0000   0.2686
  -5.250  -0.3560   0.05890   0.05060  -0.0247   1.0000   0.2686
  -5.350  -0.3631   0.05968   0.05140  -0.0246   1.0000   0.2691
  -5.750  -0.4058   0.06735   0.05977  -0.0162   1.0000   0.2890
  -5.750  -0.4058   0.06735   0.05977  -0.0162   1.0000   0.2890
  -6.250  -0.4740   0.09019   0.08405   0.0365   1.0000   0.4655
  -6.350  -0.4772   0.09097   0.08482   0.0356   1.0000   0.4610
  -6.450  -0.4831   0.09195   0.08578   0.0344   1.0000   0.4583
  -6.750  -0.4762   0.09432   0.08812   0.0325   1.0000   0.4405
  -7.000  -0.4963   0.09756   0.09131   0.0291   1.0000   0.4352
  -7.100  -0.4678   0.09731   0.09106   0.0301   1.0000   0.4239
  -7.200  -0.4719   0.09813   0.09187   0.0292   1.0000   0.4198
  -7.500  -0.4674   0.10105   0.09473   0.0270   1.0000   0.4095
  -7.750  -0.4647   0.10274   0.09640   0.0249   1.0000   0.3981
  -8.000  -0.4961   0.10684   0.10050   0.0222   1.0000   0.3936
  -8.250  -0.4329   0.10628   0.09983   0.0198   1.0000   0.3824
  -8.500  -0.4510   0.10901   0.10257   0.0187   1.0000   0.3756
  -8.750  -0.4602   0.11258   0.10611   0.0176   1.0000   0.3714
  -9.000  -0.4034   0.11152   0.10494   0.0128   1.0000   0.3632
  -9.250  -0.4120   0.11375   0.10716   0.0112   1.0000   0.3559
  -9.500  -0.4420   0.11864   0.11205   0.0109   1.0000   0.3511
  -9.750  -0.3841   0.11680   0.11010   0.0072   1.0000   0.3446
 -10.000  -0.3832   0.11843   0.11171   0.0054   1.0000   0.3369
 -10.250  -0.4178   0.12322   0.11653   0.0044   1.0000   0.3320
 -10.500  -0.3841   0.12339   0.11659   0.0024   1.0000   0.3287
 -10.750  -0.3593   0.12320   0.11633   0.0005   1.0000   0.3210
 -11.000  -0.3651   0.12530   0.11842  -0.0012   1.0000   0.3147
 -11.250  -0.4105   0.13258   0.12574  -0.0022   1.0000   0.3100
 -11.500  -0.3516   0.12888   0.12190  -0.0042   1.0000   0.3063
 -11.750  -0.3389   0.12940   0.12237  -0.0058   1.0000   0.2990
 -12.000  -0.3463   0.13173   0.12468  -0.0077   1.0000   0.2934
 -12.250  -0.3830   0.13891   0.13187  -0.0090   1.0000   0.2894
 -12.500  -0.3318   0.13508   0.12791  -0.0105   1.0000   0.2861
 -12.750  -0.3187   0.13535   0.12811  -0.0121   1.0000   0.2789
 -13.000  -0.3249   0.13761   0.13035  -0.0140   1.0000   0.2733
 -13.250  -0.3639   0.14568   0.13844  -0.0157   1.0000   0.2694
 -13.500  -0.3154   0.14141   0.13402  -0.0168   1.0000   0.2667
 -13.750  -0.3013   0.14139   0.13393  -0.0182   1.0000   0.2597
 -14.000  -0.3056   0.14349   0.13600  -0.0200   1.0000   0.2543
 -14.000  -0.3056   0.14350   0.13600  -0.0200   1.0000   0.2543
 -14.100  -0.3134   0.14525   0.13776  -0.0208   1.0000   0.2525
 -14.200  -0.3288   0.14850   0.14102  -0.0216   1.0000   0.2509
 -14.500  -0.3050   0.14839   0.14079  -0.0226   1.0000   0.2481
 -14.750  -0.2893   0.14792   0.14024  -0.0236   1.0000   0.2418
 -15.000  -0.2927   0.14994   0.14222  -0.0252   1.0000   0.2360
 -15.250  -0.3155   0.15557   0.14786  -0.0271   1.0000   0.2322
 -15.500  -0.3028   0.15642   0.14862  -0.0278   1.0000   0.2303
 -15.750  -0.2833   0.15504   0.14715  -0.0282   1.0000   0.2251
 -16.000  -0.2839   0.15667   0.14874  -0.0294   1.0000   0.2196
 -16.250  -0.2972   0.16049   0.15254  -0.0312   1.0000   0.2154
 -16.500  -0.3114   0.16618   0.15820  -0.0324   1.0000   0.2132
 -16.750  -0.2848   0.16299   0.15492  -0.0322   1.0000   0.2102
 -17.000  -0.2809   0.16391   0.15579  -0.0328   1.0000   0.2051
 -17.250  -0.2859   0.16616   0.15801  -0.0340   1.0000   0.2006
 -17.500  -0.3076   0.17245   0.16429  -0.0359   1.0000   0.1972
 -17.750  -0.2996   0.17327   0.16504  -0.0360   1.0000   0.1957
 -18.000  -0.2855   0.17182   0.16351  -0.0357   1.0000   0.1919
 -18.250  -0.2860   0.17332   0.16498  -0.0361   1.0000   0.1877
 -18.500  -0.2921   0.17578   0.16741  -0.0370   1.0000   0.1839
 -18.750  -0.3100   0.18151   0.17313  -0.0386   1.0000   0.1810
 -19.000  -0.3069   0.18304   0.17459  -0.0385   1.0000   0.1795
 -19.250  -0.2962   0.18164   0.17313  -0.0377   1.0000   0.1762
 -19.500  -0.2980   0.18320   0.17466  -0.0377   1.0000   0.1722
 -19.750  -0.3041   0.18558   0.17700  -0.0381   1.0000   0.1690
 -20.000  -0.3167   0.18983   0.18123  -0.0390   1.0000   0.1663
