  
       XFOIL         Version 6.99
  
 Calculated polar for: Fage & Collins 1                                
  
 1 1 Reynolds number fixed          Mach number fixed         
  
 xtrf =   1.000 (top)        1.000 (bottom)  
 Mach =   0.000     Re =     0.050 e 6     Ncrit =   9.000
  
   alpha    CL        CD       CDp       CM     Top_Xtr  Bot_Xtr
  ------ -------- --------- --------- -------- -------- --------
   0.000  -0.0026   0.02774   0.01611  -0.0069   1.0000   0.1492
   0.250   0.0227   0.02761   0.01588  -0.0070   1.0000   0.1512
   0.500   0.0458   0.02760   0.01580  -0.0067   1.0000   0.1525
   0.750   0.0666   0.02775   0.01589  -0.0063   1.0000   0.1546
   1.000   0.0869   0.02793   0.01612  -0.0062   1.0000   0.1588
   1.250   0.1059   0.02832   0.01654  -0.0061   1.0000   0.1660
   1.500   0.1640   0.02917   0.01763  -0.0133   0.9855   0.1978
   1.750   0.2622   0.02840   0.01866  -0.0276   0.9663   1.0000
   2.000   0.3211   0.02943   0.01936  -0.0343   0.9416   1.0000
   2.250   0.3782   0.03023   0.02002  -0.0405   0.9168   1.0000
   2.500   0.4411   0.03073   0.02046  -0.0471   0.8924   1.0000
   2.750   0.4981   0.03067   0.02041  -0.0517   0.8632   1.0000
   3.000   0.5627   0.02980   0.01961  -0.0564   0.8323   1.0000
   3.000   0.5627   0.02980   0.01962  -0.0564   0.8323   1.0000
   3.100   0.5817   0.02948   0.01933  -0.0571   0.8194   1.0000
   3.200   0.6027   0.02910   0.01899  -0.0580   0.8078   1.0000
   3.500   0.6761   0.02754   0.01763  -0.0623   0.7751   1.0000
   3.750   0.7307   0.02620   0.01643  -0.0644   0.7456   1.0000
   4.000   0.7885   0.02464   0.01500  -0.0667   0.7113   1.0000
   4.250   0.8316   0.02383   0.01419  -0.0669   0.6688   1.0000
   4.500   0.8717   0.02353   0.01373  -0.0669   0.6203   1.0000
   4.750   0.9054   0.02389   0.01383  -0.0663   0.5709   1.0000
   5.000   0.9308   0.02483   0.01455  -0.0649   0.5261   1.0000
   5.250   0.9536   0.02595   0.01553  -0.0634   0.4885   1.0000
   5.500   0.9757   0.02710   0.01657  -0.0619   0.4572   1.0000
   5.750   0.9994   0.02817   0.01753  -0.0607   0.4303   1.0000
   6.000   1.0161   0.02929   0.01874  -0.0585   0.4059   1.0000
   6.250   1.0389   0.03032   0.01965  -0.0573   0.3835   1.0000
   6.500   1.0546   0.03149   0.02097  -0.0550   0.3621   1.0000
   6.750   1.0741   0.03264   0.02216  -0.0533   0.3415   1.0000
   7.000   1.0937   0.03388   0.02338  -0.0516   0.3210   1.0000
   7.250   1.1077   0.03530   0.02497  -0.0491   0.3007   1.0000
   7.500   1.1251   0.03671   0.02640  -0.0472   0.2802   1.0000
   7.750   1.1417   0.03825   0.02794  -0.0451   0.2599   1.0000
   8.000   1.1525   0.04012   0.03005  -0.0423   0.2414   1.0000
   8.250   1.1651   0.04187   0.03189  -0.0397   0.2226   1.0000
   8.500   1.1825   0.04348   0.03337  -0.0379   0.2031   1.0000
   8.750   1.1923   0.04559   0.03555  -0.0352   0.1863   1.0000
   9.000   1.1992   0.04782   0.03794  -0.0322   0.1711   1.0000
   9.250   1.2079   0.05013   0.04035  -0.0297   0.1570   1.0000
   9.500   1.1961   0.05333   0.04416  -0.0246   0.1500   1.0000
   9.750   1.2020   0.05608   0.04698  -0.0221   0.1404   1.0000
  10.000   1.1860   0.05981   0.05117  -0.0174   0.1368   1.0000
  10.250   1.2025   0.06247   0.05371  -0.0163   0.1281   1.0000
  10.500   1.1793   0.06641   0.05806  -0.0117   0.1272   1.0000
  10.750   1.1540   0.07039   0.06231  -0.0075   0.1269   1.0000
  11.000   1.1263   0.07456   0.06668  -0.0039   0.1270   1.0000
  11.250   1.0992   0.07935   0.07162  -0.0019   0.1275   1.0000
  11.500   1.0742   0.08485   0.07722  -0.0014   0.1283   1.0000
  11.500   1.0683   0.08517   0.07759  -0.0015   0.1293   1.0000
  11.600   1.0606   0.08740   0.07985  -0.0017   0.1290   1.0000
  11.700   1.0532   0.08983   0.08230  -0.0019   0.1287   1.0000
  12.000   0.8994   0.12540   0.11761  -0.0265   0.1722   1.0000
  12.750   0.6412   0.15070   0.14316  -0.0386   0.3058   1.0000
  13.000   0.6524   0.15478   0.14730  -0.0385   0.2915   1.0000
  13.250   0.6328   0.15405   0.14659  -0.0393   0.2827   1.0000
  13.500   0.6379   0.15756   0.15013  -0.0397   0.2740   1.0000
  13.750   0.6520   0.16223   0.15485  -0.0396   0.2610   1.0000
  14.000   0.6374   0.16202   0.15466  -0.0408   0.2528   1.0000
  14.250   0.6475   0.16639   0.15907  -0.0410   0.2451   1.0000
  14.500   0.6495   0.16853   0.16127  -0.0415   0.2339   1.0000
  14.750   0.6459   0.17077   0.16351  -0.0427   0.2285   1.0000
  15.000   0.6501   0.17348   0.16627  -0.0433   0.2200   1.0000
  15.250   0.6554   0.17735   0.17016  -0.0440   0.2154   1.0000
  15.500   0.6513   0.17853   0.17136  -0.0453   0.2072   1.0000
  15.750   0.6655   0.18404   0.17690  -0.0454   0.2014   1.0000
  16.000   0.6553   0.18407   0.17694  -0.0473   0.1960   1.0000
  16.250   0.6636   0.18768   0.18060  -0.0478   0.1898   1.0000
  16.500   0.6731   0.19275   0.18569  -0.0484   0.1866   1.0000
  16.750   0.6636   0.19266   0.18561  -0.0505   0.1817   1.0000
  17.000   0.6729   0.19640   0.18939  -0.0508   0.1747   1.0000
  17.250   0.6809   0.20128   0.19431  -0.0515   0.1717   1.0000
  17.500   0.6730   0.20139   0.19443  -0.0537   0.1678   1.0000
  17.750   0.6766   0.20416   0.19724  -0.0548   0.1627   1.0000
  18.000   0.6925   0.21040   0.20354  -0.0546   0.1583   1.0000
  18.250   0.6905   0.21256   0.20570  -0.0563   0.1566   1.0000
  18.500   0.6853   0.21307   0.20622  -0.0585   0.1524   1.0000
  18.750   0.6903   0.21609   0.20927  -0.0594   0.1469   1.0000
  19.000   0.7124   0.22565   0.21889  -0.0587   0.1429   1.0000
  19.250   0.7012   0.22393   0.21716  -0.0613   0.1417   1.0000
  19.500   0.6985   0.22510   0.21836  -0.0633   0.1382   1.0000
  19.750   0.7021   0.22801   0.22132  -0.0646   0.1340   1.0000
  20.000   0.7107   0.23231   0.22567  -0.0651   0.1304   1.0000
   0.000  -0.0274   0.01341   0.00284  -0.0070   1.0000   0.1506
  -0.250  -0.0470   0.01356   0.00309  -0.0075   1.0000   0.1492
  -0.500  -0.0651   0.01395   0.00358  -0.0084   1.0000   0.1495
  -0.750  -0.0850   0.01458   0.00432  -0.0092   1.0000   0.1521
  -1.000  -0.1050   0.01558   0.00535  -0.0099   1.0000   0.1547
  -1.250  -0.1263   0.01596   0.00622  -0.0111   1.0000   0.1623
  -1.500  -0.1467   0.01727   0.00768  -0.0121   1.0000   0.1690
  -1.750  -0.1696   0.01833   0.00924  -0.0131   1.0000   0.1818
  -2.000  -0.1931   0.01983   0.01117  -0.0139   1.0000   0.1984
  -2.250  -0.2182   0.02150   0.01330  -0.0142   1.0000   0.2212
  -2.500  -0.3965   0.04189   0.03635   0.0356   1.0000   0.6195
  -2.500  -0.2494   0.03756   0.02908  -0.0139   1.0000   0.2472
  -2.600  -0.3581   0.04126   0.03524   0.0163   1.0000   0.5249
  -2.700  -0.3219   0.04105   0.03428  -0.0001   1.0000   0.4252
  -3.000  -0.3247   0.04692   0.04140   0.0472   1.0000   0.7933
  -3.250  -0.2695   0.04749   0.04175   0.0370   1.0000   0.8107
  -3.500  -0.2165   0.04783   0.04186   0.0275   1.0000   0.8413
  -3.750  -0.1609   0.04762   0.04141   0.0168   1.0000   0.8744
  -4.000  -0.1057   0.04717   0.04071   0.0054   1.0000   0.9176
  -4.250  -0.0483   0.04602   0.03929  -0.0081   1.0000   0.9568
  -4.500   0.0131   0.04409   0.03705  -0.0244   1.0000   0.9947
  -4.750   0.0186   0.04498   0.03782  -0.0278   1.0000   1.0000
  -5.000   0.0108   0.04676   0.03953  -0.0278   1.0000   1.0000
  -5.250   0.0026   0.04854   0.04124  -0.0278   1.0000   1.0000
  -5.500  -0.4491   0.07277   0.06681   0.0096   1.0000   0.4078
  -5.750  -0.4465   0.07481   0.06877   0.0051   1.0000   0.3748
  -5.750  -0.4465   0.07481   0.06877   0.0051   1.0000   0.3748
  -5.850  -0.4564   0.07647   0.07040   0.0021   1.0000   0.3613
  -5.950  -0.4424   0.07630   0.07020   0.0022   1.0000   0.3518
  -6.250  -0.4405   0.07926   0.07306  -0.0018   1.0000   0.3248
  -6.500  -0.4368   0.08149   0.07520  -0.0044   1.0000   0.3059
  -6.750  -0.4339   0.08388   0.07751  -0.0069   1.0000   0.2895
  -7.000  -0.4305   0.08636   0.07990  -0.0090   1.0000   0.2757
  -7.250  -0.4318   0.08920   0.08266  -0.0112   1.0000   0.2629
  -7.500  -0.4425   0.09283   0.08627  -0.0139   1.0000   0.2494
  -7.750  -0.4158   0.09330   0.08656  -0.0147   1.0000   0.2419
  -8.000  -0.4222   0.09675   0.08995  -0.0164   1.0000   0.2321
  -8.250  -0.4116   0.09823   0.09130  -0.0177   1.0000   0.2231
  -8.500  -0.4124   0.10134   0.09433  -0.0188   1.0000   0.2157
  -8.750  -0.4348   0.10652   0.09953  -0.0210   1.0000   0.2022
  -9.000  -0.4080   0.10631   0.09913  -0.0202   1.0000   0.1991
  -9.250  -0.4339   0.11218   0.10504  -0.0226   1.0000   0.1864
  -9.500  -0.4103   0.11189   0.10458  -0.0210   1.0000   0.1837
  -9.750  -0.4091   0.11406   0.10667  -0.0210   1.0000   0.1756
 -10.000  -0.4237   0.11917   0.11179  -0.0223   1.0000   0.1698
 -10.250  -0.4108   0.11973   0.11221  -0.0207   1.0000   0.1655
 -10.500  -0.4174   0.12288   0.11534  -0.0211   1.0000   0.1584
 -10.750  -0.4316   0.12835   0.12081  -0.0221   1.0000   0.1541
 -11.000  -0.4194   0.12864   0.12099  -0.0201   1.0000   0.1508
 -11.250  -0.4216   0.13119   0.12350  -0.0196   1.0000   0.1449
 -11.500  -0.4480   0.13913   0.13149  -0.0220   1.0000   0.1387
 -11.750  -0.4344   0.13873   0.13098  -0.0195   1.0000   0.1372
 -12.000  -0.4305   0.14006   0.13225  -0.0181   1.0000   0.1325
 -12.250  -0.4400   0.14382   0.13601  -0.0184   1.0000   0.1261
 -12.500  -0.4566   0.15056   0.14276  -0.0193   1.0000   0.1227
 -12.750  -0.4474   0.15038   0.14250  -0.0170   1.0000   0.1211
 -13.000  -0.4462   0.15202   0.14409  -0.0156   1.0000   0.1169
 -13.250  -0.4517   0.15504   0.14709  -0.0151   1.0000   0.1130
 -13.500  -0.4864   0.16697   0.15910  -0.0181   1.0000   0.1075
 -13.750  -0.4778   0.16644   0.15849  -0.0157   1.0000   0.1071
 -14.000  -0.4701   0.16584   0.15782  -0.0133   1.0000   0.1057
 -14.250  -0.4700   0.16725   0.15919  -0.0117   1.0000   0.1027
 -14.500  -0.4749   0.16996   0.16189  -0.0108   1.0000   0.0988
 -14.750  -0.4834   0.17364   0.16556  -0.0104   1.0000   0.0954
 -15.000  -0.5079   0.18429   0.17626  -0.0119   1.0000   0.0920
 -15.250  -0.5001   0.18273   0.17464  -0.0094   1.0000   0.0913
 -15.500  -0.4990   0.18297   0.17483  -0.0073   1.0000   0.0896
 -15.750  -0.5025   0.18496   0.17679  -0.0058   1.0000   0.0866
 -16.000  -0.5087   0.18779   0.17962  -0.0047   1.0000   0.0839
 -16.250  -0.5162   0.19106   0.18287  -0.0039   1.0000   0.0816
 -16.500  -0.5287   0.19676   0.18859  -0.0040   1.0000   0.0789
 -16.750  -0.5458   0.20614   0.19797  -0.0042   1.0000   0.0773
 -17.000  -0.5430   0.20479   0.19658  -0.0018   1.0000   0.0769
 -17.250  -0.5428   0.20412   0.19586   0.0006   1.0000   0.0756
 -17.500  -0.5473   0.20573   0.19745   0.0024   1.0000   0.0731
 -17.750  -0.5539   0.20838   0.20011   0.0038   1.0000   0.0705
 -18.000  -0.5615   0.21143   0.20316   0.0049   1.0000   0.0683
 -18.250  -0.5704   0.21541   0.20714   0.0057   1.0000   0.0662
 -18.500  -0.5862   0.22418   0.21596   0.0052   1.0000   0.0645
 -18.750  -0.5945   0.22918   0.22092   0.0065   1.0000   0.0639
 -19.000  -0.5953   0.22793   0.21963   0.0089   1.0000   0.0635
 -19.250  -0.5982   0.22765   0.21932   0.0114   1.0000   0.0626
 -19.500  -0.6040   0.22922   0.22088   0.0134   1.0000   0.0612
 -19.750  -0.6109   0.23162   0.22328   0.0151   1.0000   0.0595
 -20.000  -0.6183   0.23433   0.22600   0.0166   1.0000   0.0579
