  
       XFOIL         Version 6.99
  
 Calculated polar for: Fage & Collins 1                                
  
 1 1 Reynolds number fixed          Mach number fixed         
  
 xtrf =   1.000 (top)        1.000 (bottom)  
 Mach =   0.000     Re =     0.050 e 6     Ncrit =   9.000
  
   alpha    CL        CD       CDp       CM     Top_Xtr  Bot_Xtr
  ------ -------- --------- --------- -------- -------- --------
   0.000  -0.0026   0.02774   0.01611  -0.0069   1.0000   0.1492
   0.250   0.0227   0.02761   0.01588  -0.0070   1.0000   0.1512
   0.500   0.0458   0.02760   0.01580  -0.0067   1.0000   0.1525
   0.750   0.0666   0.02775   0.01589  -0.0063   1.0000   0.1546
   1.000   0.0869   0.02793   0.01612  -0.0062   1.0000   0.1588
   1.250   0.1059   0.02832   0.01654  -0.0061   1.0000   0.1660
   1.500   0.1640   0.02917   0.01763  -0.0133   0.9855   0.1978
   1.750   0.2622   0.02840   0.01866  -0.0276   0.9663   1.0000
   2.000   0.3211   0.02943   0.01936  -0.0343   0.9416   1.0000
   2.250   0.3782   0.03023   0.02002  -0.0405   0.9168   1.0000
   2.500   0.4411   0.03073   0.02046  -0.0471   0.8924   1.0000
   2.750   0.4981   0.03067   0.02041  -0.0517   0.8632   1.0000
   3.000   0.5627   0.02980   0.01961  -0.0564   0.8323   1.0000
   3.000   0.5627   0.02980   0.01962  -0.0564   0.8323   1.0000
   3.100   0.5817   0.02948   0.01933  -0.0571   0.8194   1.0000
   3.200   0.6027   0.02910   0.01899  -0.0580   0.8078   1.0000
   3.500   0.6761   0.02754   0.01763  -0.0623   0.7751   1.0000
   3.750   0.7307   0.02620   0.01643  -0.0644   0.7456   1.0000
   4.000   0.7885   0.02464   0.01500  -0.0667   0.7113   1.0000
   4.250   0.8316   0.02383   0.01419  -0.0669   0.6688   1.0000
   4.500   0.8717   0.02353   0.01373  -0.0669   0.6203   1.0000
   4.750   0.9054   0.02389   0.01383  -0.0663   0.5709   1.0000
   5.000   0.9308   0.02483   0.01455  -0.0649   0.5261   1.0000
   5.250   0.9536   0.02595   0.01553  -0.0634   0.4885   1.0000
   5.500   0.9757   0.02710   0.01657  -0.0619   0.4572   1.0000
   5.750   0.9994   0.02817   0.01753  -0.0607   0.4303   1.0000
   6.000   1.0161   0.02929   0.01874  -0.0585   0.4059   1.0000
   6.250   1.0389   0.03032   0.01965  -0.0573   0.3835   1.0000
   6.500   1.0546   0.03149   0.02097  -0.0550   0.3621   1.0000
   6.750   1.0741   0.03264   0.02216  -0.0533   0.3415   1.0000
   7.000   1.0937   0.03388   0.02338  -0.0516   0.3210   1.0000
   7.250   1.1077   0.03530   0.02497  -0.0491   0.3007   1.0000
   7.500   1.1251   0.03671   0.02640  -0.0472   0.2802   1.0000
   7.750   1.1417   0.03825   0.02794  -0.0451   0.2599   1.0000
   8.000   1.1525   0.04012   0.03005  -0.0423   0.2414   1.0000
   8.250   1.1651   0.04187   0.03189  -0.0397   0.2226   1.0000
   8.500   1.1825   0.04348   0.03337  -0.0379   0.2031   1.0000
   8.750   1.1923   0.04559   0.03555  -0.0352   0.1863   1.0000
   9.000   1.1992   0.04782   0.03794  -0.0322   0.1711   1.0000
   9.250   1.2079   0.05013   0.04035  -0.0297   0.1570   1.0000
   9.500   1.1961   0.05333   0.04416  -0.0246   0.1500   1.0000
   9.750   1.2020   0.05608   0.04698  -0.0221   0.1404   1.0000
  10.000   1.1860   0.05981   0.05117  -0.0174   0.1368   1.0000
  10.250   1.2025   0.06247   0.05371  -0.0163   0.1281   1.0000
  10.500   1.1793   0.06641   0.05806  -0.0117   0.1272   1.0000
  10.750   1.1540   0.07039   0.06231  -0.0075   0.1269   1.0000
  11.000   1.1263   0.07456   0.06668  -0.0039   0.1270   1.0000
  11.250   1.0992   0.07935   0.07162  -0.0019   0.1275   1.0000
  11.500   1.0742   0.08485   0.07722  -0.0014   0.1283   1.0000
  12.500   0.7969   0.15557   0.14743  -0.0516   0.2987   1.0000
  12.250   0.8166   0.15380   0.14573  -0.0501   0.3069   1.0000
  12.350   0.8041   0.15430   0.14618  -0.0510   0.3054   1.0000
  12.450   0.7965   0.15495   0.14680  -0.0515   0.3018   1.0000
  12.750   0.8037   0.15991   0.15180  -0.0519   0.2887   1.0000
  12.600   0.8199   0.15931   0.15129  -0.0505   0.2915   1.0000
  12.700   0.8081   0.15968   0.15159  -0.0515   0.2900   1.0000
  13.000   0.8162   0.16459   0.15655  -0.0517   0.2755   1.0000
  12.750   0.8037   0.15991   0.15180  -0.0519   0.2887   1.0000
  12.850   0.8021   0.16085   0.15274  -0.0521   0.2829   1.0000
  12.950   0.8222   0.16449   0.15648  -0.0511   0.2762   1.0000
  13.250   0.8133   0.16719   0.15915  -0.0525   0.2649   1.0000
  13.500   0.8121   0.17075   0.16270  -0.0536   0.2567   1.0000
  13.750   0.8305   0.17627   0.16827  -0.0532   0.2458   1.0000
  14.000   0.8204   0.17785   0.16981  -0.0551   0.2377   1.0000
  13.750   0.8305   0.17627   0.16827  -0.0532   0.2458   1.0000
  13.850   0.8210   0.17628   0.16825  -0.0544   0.2436   1.0000
  13.950   0.8189   0.17712   0.16908  -0.0550   0.2399   1.0000
  14.250   0.8392   0.18401   0.17602  -0.0548   0.2310   1.0000
  14.500   0.8293   0.18517   0.17714  -0.0570   0.2226   1.0000
  14.750   0.8454   0.19084   0.18284  -0.0569   0.2159   1.0000
  15.000   0.8384   0.19222   0.18419  -0.0592   0.2089   1.0000
  15.250   0.8697   0.20121   0.19331  -0.0577   0.2021   1.0000
  15.500   0.8533   0.20053   0.19255  -0.0611   0.1999   1.0000
  15.750   0.8554   0.20301   0.19503  -0.0627   0.1920   1.0000
  16.000   0.8752   0.21012   0.20219  -0.0622   0.1868   1.0000
  16.250   0.8654   0.20998   0.20199  -0.0655   0.1825   1.0000
  16.500   0.8736   0.21350   0.20553  -0.0665   0.1762   1.0000
  16.750   0.9003   0.22350   0.21562  -0.0652   0.1724   1.0000
  17.000   0.8874   0.22161   0.21365  -0.0691   0.1706   1.0000
  17.250   0.8882   0.22337   0.21539  -0.0715   0.1653   1.0000
  17.500   0.9006   0.22787   0.21994  -0.0718   0.1598   1.0000
  17.750   0.9118   0.23385   0.22592  -0.0725   0.1569   1.0000
  18.000   0.9075   0.23354   0.22557  -0.0759   0.1530   1.0000
  18.250   0.9144   0.23657   0.22864  -0.0774   0.1479   1.0000
  18.500   0.9291   0.24240   0.23453  -0.0773   0.1442   1.0000
  18.750   0.9396   0.24863   0.24076  -0.0783   0.1425   1.0000
  19.000   0.9347   0.24713   0.23922  -0.0822   0.1401   1.0000
  19.250   0.9395   0.24942   0.24152  -0.0843   0.1355   1.0000
  19.500   0.9500   0.25357   0.24571  -0.0850   0.1311   1.0000
  19.750   0.9678   0.26316   0.25534  -0.0844   0.1285   1.0000
  20.000   0.9617   0.26002   0.25214  -0.0888   0.1265   1.0000
   0.000  -0.0026   0.02774   0.01611  -0.0069   1.0000   0.1492
  -0.250  -0.0297   0.02799   0.01649  -0.0067   1.0000   0.1469
  -0.500  -0.0524   0.02842   0.01706  -0.0075   1.0000   0.1464
  -0.750  -0.0752   0.02903   0.01783  -0.0083   1.0000   0.1491
  -1.000  -0.0984   0.02987   0.01881  -0.0090   1.0000   0.1525
  -1.250  -0.1212   0.03060   0.01980  -0.0101   1.0000   0.1571
  -1.500  -0.1448   0.03156   0.02115  -0.0113   1.0000   0.1660
  -1.750  -0.1687   0.03260   0.02260  -0.0124   1.0000   0.1765
  -2.000  -0.1938   0.03394   0.02440  -0.0134   1.0000   0.1926
  -2.250  -0.2199   0.03558   0.02652  -0.0140   1.0000   0.2137
  -2.500  -0.3965   0.04189   0.03635   0.0356   1.0000   0.6195
  -2.750  -0.3772   0.04582   0.04050   0.0565   1.0000   0.7776
  -3.000  -0.3247   0.04692   0.04140   0.0472   1.0000   0.7933
  -3.250  -0.2695   0.04749   0.04175   0.0370   1.0000   0.8107
  -3.500  -0.2165   0.04783   0.04186   0.0275   1.0000   0.8413
  -3.750  -0.1609   0.04762   0.04141   0.0168   1.0000   0.8744
  -4.000  -0.1057   0.04717   0.04071   0.0054   1.0000   0.9176
  -4.250  -0.0483   0.04602   0.03929  -0.0081   1.0000   0.9568
  -4.750   0.0186   0.04498   0.03782  -0.0278   1.0000   1.0000
  -5.000   0.0108   0.04676   0.03953  -0.0278   1.0000   1.0000
  -5.250   0.0026   0.04854   0.04124  -0.0278   1.0000   1.0000
  -5.500  -0.4491   0.07277   0.06681   0.0096   1.0000   0.4078
  -5.750  -0.4465   0.07481   0.06877   0.0051   1.0000   0.3748
  -6.000  -0.4565   0.07796   0.07185  -0.0003   1.0000   0.3454
  -6.250  -0.4405   0.07926   0.07306  -0.0018   1.0000   0.3248
  -6.500  -0.4368   0.08149   0.07520  -0.0044   1.0000   0.3059
  -6.750  -0.4339   0.08388   0.07751  -0.0069   1.0000   0.2895
  -7.000  -0.4305   0.08636   0.07990  -0.0090   1.0000   0.2757
  -7.250  -0.4318   0.08920   0.08266  -0.0112   1.0000   0.2629
  -7.000  -0.4306   0.08636   0.07990  -0.0090   1.0000   0.2757
  -7.100  -0.4563   0.08955   0.08315  -0.0125   1.0000   0.2662
  -7.200  -0.4396   0.08926   0.08278  -0.0114   1.0000   0.2646
  -7.500  -0.4425   0.09283   0.08627  -0.0139   1.0000   0.2494
  -7.750  -0.4158   0.09330   0.08656  -0.0147   1.0000   0.2419
  -8.000  -0.4222   0.09675   0.08995  -0.0164   1.0000   0.2321
  -8.250  -0.4116   0.09823   0.09130  -0.0177   1.0000   0.2231
  -8.500  -0.4124   0.10134   0.09433  -0.0188   1.0000   0.2157
  -8.750  -0.4348   0.10652   0.09953  -0.0210   1.0000   0.2022
  -9.000  -0.4080   0.10631   0.09913  -0.0202   1.0000   0.1991
  -9.250  -0.4339   0.11218   0.10505  -0.0226   1.0000   0.1864
  -9.500  -0.4103   0.11189   0.10458  -0.0210   1.0000   0.1837
  -9.750  -0.4091   0.11406   0.10667  -0.0210   1.0000   0.1756
 -10.000  -0.4237   0.11917   0.11179  -0.0223   1.0000   0.1698
 -10.250  -0.4108   0.11973   0.11221  -0.0207   1.0000   0.1655
 -10.500  -0.4174   0.12288   0.11534  -0.0211   1.0000   0.1584
 -10.750  -0.4316   0.12835   0.12081  -0.0221   1.0000   0.1541
 -11.000  -0.4194   0.12864   0.12099  -0.0201   1.0000   0.1508
 -11.250  -0.4216   0.13119   0.12350  -0.0196   1.0000   0.1449
 -11.500  -0.4480   0.13913   0.13149  -0.0220   1.0000   0.1387
 -11.750  -0.4344   0.13873   0.13098  -0.0195   1.0000   0.1372
 -12.000  -0.4305   0.14006   0.13225  -0.0181   1.0000   0.1325
 -12.250  -0.4400   0.14382   0.13601  -0.0184   1.0000   0.1261
 -12.500  -0.4567   0.15056   0.14276  -0.0193   1.0000   0.1227
 -12.750  -0.4474   0.15038   0.14250  -0.0170   1.0000   0.1211
 -13.000  -0.4462   0.15202   0.14409  -0.0156   1.0000   0.1169
 -13.250  -0.4517   0.15504   0.14709  -0.0151   1.0000   0.1130
 -13.500  -0.4864   0.16697   0.15910  -0.0181   1.0000   0.1075
 -13.750  -0.4778   0.16644   0.15849  -0.0157   1.0000   0.1071
 -14.000  -0.4701   0.16584   0.15782  -0.0133   1.0000   0.1057
 -14.250  -0.4700   0.16725   0.15919  -0.0117   1.0000   0.1027
 -14.500  -0.4749   0.16996   0.16189  -0.0108   1.0000   0.0988
 -14.750  -0.4834   0.17364   0.16556  -0.0104   1.0000   0.0954
 -15.000  -0.5079   0.18429   0.17626  -0.0119   1.0000   0.0920
 -15.250  -0.5001   0.18273   0.17464  -0.0094   1.0000   0.0913
 -15.500  -0.4990   0.18297   0.17483  -0.0073   1.0000   0.0896
 -15.750  -0.5025   0.18496   0.17679  -0.0058   1.0000   0.0866
 -16.000  -0.5087   0.18779   0.17962  -0.0047   1.0000   0.0839
 -16.250  -0.5162   0.19106   0.18287  -0.0039   1.0000   0.0816
 -16.500  -0.5287   0.19676   0.18859  -0.0040   1.0000   0.0789
 -16.750  -0.5458   0.20614   0.19797  -0.0042   1.0000   0.0773
 -17.000  -0.5430   0.20479   0.19658  -0.0018   1.0000   0.0769
 -17.250  -0.5428   0.20412   0.19586   0.0006   1.0000   0.0756
 -17.500  -0.5473   0.20573   0.19745   0.0024   1.0000   0.0731
 -17.750  -0.5539   0.20838   0.20011   0.0038   1.0000   0.0705
 -18.000  -0.5615   0.21143   0.20316   0.0049   1.0000   0.0683
 -18.250  -0.5704   0.21541   0.20714   0.0057   1.0000   0.0662
 -18.500  -0.5862   0.22419   0.21596   0.0052   1.0000   0.0645
 -18.750  -0.5945   0.22918   0.22092   0.0065   1.0000   0.0639
 -19.000  -0.5953   0.22793   0.21963   0.0089   1.0000   0.0635
 -19.250  -0.5982   0.22765   0.21932   0.0114   1.0000   0.0626
 -19.500  -0.6040   0.22922   0.22088   0.0134   1.0000   0.0612
 -19.750  -0.6109   0.23162   0.22328   0.0151   1.0000   0.0595
 -20.000  -0.6183   0.23433   0.22600   0.0166   1.0000   0.0579
