  
       XFOIL         Version 6.99
  
 Calculated polar for: E392  (10.15%)                                  
  
 1 1 Reynolds number fixed          Mach number fixed         
  
 xtrf =   1.000 (top)        1.000 (bottom)  
 Mach =   0.000     Re =     0.050 e 6     Ncrit =   9.000
  
   alpha    CL        CD       CDp       CM     Top_Xtr  Bot_Xtr
  ------ -------- --------- --------- -------- -------- --------
   0.000   0.1839   0.02954   0.02010  -0.0786   0.9201   1.0000
   0.250   0.2191   0.03046   0.02074  -0.0810   0.9125   1.0000
   0.500   0.2444   0.03127   0.02132  -0.0818   0.9040   1.0000
   0.750   0.2741   0.03220   0.02205  -0.0833   0.8966   1.0000
   1.000   0.3017   0.03310   0.02279  -0.0845   0.8883   1.0000
   1.250   0.3266   0.03406   0.02361  -0.0852   0.8806   1.0000
   1.500   0.3561   0.03505   0.02446  -0.0866   0.8729   1.0000
   1.750   0.3768   0.03608   0.02539  -0.0868   0.8649   1.0000
   2.000   0.4088   0.03713   0.02635  -0.0885   0.8573   1.0000
   2.250   0.4249   0.03823   0.02739  -0.0880   0.8493   1.0000
   2.500   0.4609   0.03935   0.02845  -0.0902   0.8416   1.0000
   2.750   0.4713   0.04053   0.02961  -0.0890   0.8332   1.0000
   3.000   0.5027   0.04172   0.03077  -0.0906   0.8252   1.0000
   3.250   0.5182   0.04296   0.03201  -0.0901   0.8164   1.0000
   3.500   0.5406   0.04425   0.03332  -0.0905   0.8078   1.0000
   3.750   0.5712   0.04546   0.03455  -0.0918   0.7986   1.0000
   4.000   0.5819   0.04690   0.03601  -0.0908   0.7891   1.0000
   4.250   0.6071   0.04824   0.03739  -0.0915   0.7792   1.0000
   4.500   0.6427   0.04939   0.03865  -0.0930   0.7683   1.0000
   4.750   0.6508   0.05096   0.04027  -0.0918   0.7572   1.0000
   5.000   0.6687   0.05243   0.04180  -0.0916   0.7454   1.0000
   5.250   0.6915   0.05379   0.04326  -0.0917   0.7325   1.0000
   5.500   0.7151   0.05516   0.04478  -0.0918   0.7194   1.0000
   5.750   0.7387   0.05647   0.04621  -0.0918   0.7052   1.0000
   6.000   0.7613   0.05779   0.04766  -0.0916   0.6902   1.0000
   6.250   0.7834   0.05906   0.04907  -0.0913   0.6743   1.0000
   6.500   0.8075   0.06022   0.05043  -0.0909   0.6576   1.0000
   6.750   0.8384   0.06095   0.05136  -0.0907   0.6402   1.0000
   7.000   0.8860   0.06056   0.05126  -0.0908   0.6224   1.0000
   7.250   0.8877   0.06258   0.05340  -0.0889   0.6024   1.0000
   7.500   0.9238   0.06231   0.05344  -0.0880   0.5822   1.0000
   7.750   0.9613   0.06150   0.05293  -0.0865   0.5611   1.0000
   8.000   1.0077   0.05923   0.05109  -0.0844   0.5386   1.0000
   8.250   1.0921   0.05174   0.04424  -0.0810   0.5129   1.0000
   8.500   1.2282   0.03669   0.02992  -0.0774   0.4624   1.0000
   8.750   1.2500   0.03393   0.02711  -0.0723   0.4028   1.0000
   9.000   1.2521   0.03373   0.02638  -0.0666   0.3335   1.0000
   9.250   1.2421   0.03556   0.02757  -0.0614   0.2746   1.0000
   9.500   1.2296   0.03804   0.02953  -0.0567   0.2291   1.0000
   9.750   1.2202   0.04092   0.03202  -0.0530   0.1898   1.0000
  10.000   1.2220   0.04412   0.03475  -0.0502   0.1519   1.0000
  10.250   1.2394   0.04730   0.03772  -0.0486   0.1226   1.0000
  10.500   1.3019   0.05193   0.04213  -0.0512   0.1006   1.0000
  10.750   1.3120   0.05514   0.04587  -0.0493   0.0947   1.0000
  11.000   1.3419   0.05958   0.05030  -0.0499   0.0879   1.0000
  11.250   1.3432   0.06343   0.05470  -0.0476   0.0867   1.0000
  11.500   1.3388   0.06740   0.05912  -0.0451   0.0861   1.0000
  11.750   1.3287   0.07136   0.06346  -0.0426   0.0858   1.0000
  12.000   1.3145   0.07549   0.06792  -0.0404   0.0859   1.0000
  12.250   1.2973   0.07987   0.07260  -0.0389   0.0861   1.0000
  12.500   1.2782   0.08465   0.07764  -0.0382   0.0865   1.0000
  12.750   1.2579   0.08989   0.08311  -0.0383   0.0869   1.0000
  13.000   1.2377   0.09559   0.08901  -0.0392   0.0875   1.0000
  13.250   1.2186   0.10179   0.09537  -0.0408   0.0880   1.0000
  13.250   1.2186   0.10179   0.09537  -0.0408   0.0880   1.0000
  13.350   1.2120   0.10439   0.09803  -0.0415   0.0882   1.0000
  13.750   1.0557   0.13588   0.12985  -0.0666   0.1050   1.0000
  13.500   1.1181   0.11647   0.11044  -0.0529   0.0942   1.0000
  13.600   1.0999   0.12186   0.11585  -0.0564   0.0964   1.0000
  13.700   1.0882   0.12636   0.12035  -0.0591   0.0978   1.0000
  14.000   1.0686   0.13774   0.13172  -0.0652   0.1001   1.0000
  14.250   1.0626   0.14565   0.13962  -0.0686   0.1010   1.0000
  14.750   0.7641   0.17998   0.17421  -0.0878   0.2509   1.0000
  15.000   0.7507   0.18145   0.17568  -0.0902   0.2468   1.0000
  14.750   0.7641   0.17998   0.17421  -0.0878   0.2509   1.0000
  14.850   0.7583   0.18054   0.17477  -0.0888   0.2502   1.0000
  14.950   0.7520   0.18100   0.17523  -0.0898   0.2482   1.0000
  15.250   0.7681   0.18713   0.18142  -0.0901   0.2368   1.0000
  15.500   0.7554   0.18827   0.18256  -0.0925   0.2308   1.0000
  15.750   0.7715   0.19381   0.18818  -0.0925   0.2226   1.0000
  16.000   0.7615   0.19521   0.18958  -0.0949   0.2168   1.0000
  16.250   0.7778   0.20080   0.19523  -0.0949   0.2101   1.0000
  16.500   0.7718   0.20320   0.19763  -0.0971   0.2071   1.0000
  16.750   0.7726   0.20597   0.20043  -0.0986   0.1997   1.0000
  17.000   0.7831   0.21111   0.20560  -0.0992   0.1943   1.0000
  17.250   0.7781   0.21291   0.20741  -0.1014   0.1877   1.0000
  17.500   0.7994   0.22024   0.21480  -0.1008   0.1814   1.0000
  17.750   0.7864   0.22047   0.21502  -0.1040   0.1780   1.0000
  18.000   0.7904   0.22387   0.21846  -0.1052   0.1718   1.0000
  18.250   0.8093   0.23140   0.22604  -0.1050   0.1677   1.0000
  18.500   0.7973   0.23159   0.22622  -0.1081   0.1646   1.0000
  18.750   0.8006   0.23495   0.22962  -0.1096   0.1586   1.0000
  19.000   0.8177   0.24212   0.23685  -0.1093   0.1539   1.0000
  19.250   0.8080   0.24265   0.23739  -0.1125   0.1508   1.0000
  19.500   0.8121   0.24614   0.24091  -0.1138   0.1445   1.0000
  19.750   0.8292   0.25384   0.24866  -0.1135   0.1405   1.0000
  20.000   0.8200   0.25429   0.24910  -0.1166   0.1382   1.0000
   0.000   0.1839   0.02954   0.02010  -0.0786   0.9201   1.0000
  -0.250   0.1603   0.02884   0.01966  -0.0780   0.9288   1.0000
  -0.500   0.1197   0.02791   0.01914  -0.0746   0.9366   1.0000
  -0.750   0.0892   0.02716   0.01879  -0.0729   0.9451   1.0000
  -1.000   0.0514   0.02636   0.01852  -0.0698   0.9536   1.0000
  -1.250   0.0118   0.02556   0.01848  -0.0663   0.9619   1.0000
  -1.500  -0.0051   0.02641   0.01898  -0.0698   0.9714   0.6373
  -1.750  -0.0403   0.02913   0.01931  -0.0701   0.9760   0.2502
  -2.000  -0.0784   0.03053   0.02045  -0.0681   0.9831   0.1748
  -2.250  -0.1214   0.03188   0.02204  -0.0654   0.9898   0.1409
  -2.500  -0.1648   0.03341   0.02392  -0.0622   0.9969   0.1232
  -2.750  -0.1982   0.03546   0.02619  -0.0605   1.0000   0.1185
  -3.000  -0.2265   0.03766   0.02900  -0.0595   1.0000   0.1163
  -3.250  -0.2555   0.04025   0.03223  -0.0580   1.0000   0.1152
  -3.500  -0.2810   0.04332   0.03560  -0.0567   1.0000   0.1174
  -3.750  -0.3168   0.04814   0.04133  -0.0529   1.0000   0.1337
  -4.250  -0.4405   0.07532   0.07066   0.0067   1.0000   0.3869
  -4.500  -0.4420   0.07770   0.07299   0.0028   1.0000   0.3693
  -4.500  -0.4420   0.07769   0.07299   0.0028   1.0000   0.3693
  -4.600  -0.4335   0.07795   0.07321   0.0035   1.0000   0.3591
  -4.700  -0.4396   0.07937   0.07461   0.0006   1.0000   0.3543
  -5.000  -0.4236   0.08102   0.07616  -0.0005   1.0000   0.3344
  -4.850  -0.4292   0.07988   0.07506   0.0008   1.0000   0.3426
  -4.950  -0.4379   0.08168   0.07688  -0.0026   1.0000   0.3388
  -5.250  -0.4223   0.08329   0.07838  -0.0040   1.0000   0.3225
  -5.500  -0.4227   0.08574   0.08076  -0.0081   1.0000   0.3089
  -5.750  -0.3868   0.08496   0.07981  -0.0086   1.0000   0.3007
  -5.500  -0.4227   0.08574   0.08076  -0.0081   1.0000   0.3089
  -5.600  -0.4031   0.08505   0.07999  -0.0072   1.0000   0.3068
  -5.700  -0.3897   0.08480   0.07967  -0.0079   1.0000   0.3029
  -6.000  -0.3810   0.08699   0.08173  -0.0122   1.0000   0.2921
  -6.250  -0.3586   0.08719   0.08178  -0.0156   1.0000   0.2839
  -6.500  -0.3488   0.08894   0.08338  -0.0189   1.0000   0.2767
  -6.750  -0.3574   0.09221   0.08659  -0.0219   1.0000   0.2641
  -7.000  -0.3212   0.09124   0.08532  -0.0248   1.0000   0.2598
  -7.250  -0.3295   0.09458   0.08859  -0.0267   1.0000   0.2484
  -7.500  -0.3403   0.09824   0.09219  -0.0286   1.0000   0.2347
  -7.750  -0.3153   0.09793   0.09164  -0.0290   1.0000   0.2313
  -8.000  -0.3262   0.10175   0.09540  -0.0304   1.0000   0.2191
  -8.250  -0.3151   0.10264   0.09614  -0.0301   1.0000   0.2111
  -8.500  -0.3235   0.10633   0.09977  -0.0308   1.0000   0.2036
  -8.750  -0.3227   0.10832   0.10167  -0.0306   1.0000   0.1944
  -9.000  -0.3313   0.11227   0.10555  -0.0309   1.0000   0.1894
  -9.250  -0.3253   0.11360   0.10678  -0.0297   1.0000   0.1823
  -9.500  -0.3478   0.11966   0.11287  -0.0312   1.0000   0.1758
  -9.750  -0.3329   0.11960   0.11267  -0.0288   1.0000   0.1712
 -10.000  -0.3431   0.12314   0.11618  -0.0289   1.0000   0.1641
 -10.250  -0.3528   0.12761   0.12061  -0.0288   1.0000   0.1606
 -10.500  -0.3457   0.12843   0.12133  -0.0267   1.0000   0.1558
 -10.750  -0.3571   0.13237   0.12526  -0.0269   1.0000   0.1493
 -11.000  -0.3704   0.13762   0.13048  -0.0268   1.0000   0.1463
 -11.250  -0.3612   0.13779   0.13055  -0.0244   1.0000   0.1427
 -11.500  -0.3667   0.14069   0.13342  -0.0235   1.0000   0.1373
 -11.750  -0.3967   0.14972   0.14248  -0.0253   1.0000   0.1324
 -12.000  -0.3855   0.14905   0.14171  -0.0225   1.0000   0.1313
 -12.250  -0.3824   0.15001   0.14261  -0.0204   1.0000   0.1277
 -12.500  -0.3886   0.15292   0.14550  -0.0194   1.0000   0.1234
 -12.750  -0.4202   0.16326   0.15591  -0.0212   1.0000   0.1180
 -13.000  -0.4111   0.16240   0.15496  -0.0185   1.0000   0.1173
 -13.250  -0.4082   0.16279   0.15530  -0.0161   1.0000   0.1150
 -13.500  -0.4128   0.16519   0.15766  -0.0146   1.0000   0.1105
 -13.750  -0.4240   0.16931   0.16178  -0.0142   1.0000   0.1062
 -14.000  -0.4442   0.17768   0.17015  -0.0145   1.0000   0.1035
 -14.250  -0.4392   0.17684   0.16925  -0.0118   1.0000   0.1025
 -14.500  -0.4407   0.17791   0.17027  -0.0096   1.0000   0.0999
 -14.750  -0.4471   0.18061   0.17295  -0.0081   1.0000   0.0965
 -15.000  -0.4557   0.18387   0.17620  -0.0069   1.0000   0.0939
 -15.250  -0.4701   0.18960   0.18194  -0.0067   1.0000   0.0909
 -15.500  -0.4864   0.19751   0.18984  -0.0063   1.0000   0.0895
 -15.750  -0.4842   0.19648   0.18875  -0.0036   1.0000   0.0888
 -16.000  -0.4868   0.19709   0.18935  -0.0012   1.0000   0.0874
 -16.250  -0.4928   0.19921   0.19146   0.0008   1.0000   0.0850
 -16.500  -0.5006   0.20205   0.19428   0.0025   1.0000   0.0825
 -16.750  -0.5094   0.20532   0.19755   0.0039   1.0000   0.0801
 -17.000  -0.5200   0.20942   0.20165   0.0049   1.0000   0.0780
 -17.250  -0.5459   0.22371   0.21596   0.0038   1.0000   0.0758
 -17.500  -0.5451   0.22203   0.21424   0.0065   1.0000   0.0756
 -17.750  -0.5469   0.22122   0.21339   0.0093   1.0000   0.0750
 -18.000  -0.5516   0.22174   0.21387   0.0119   1.0000   0.0740
 -18.250  -0.5585   0.22361   0.21573   0.0141   1.0000   0.0723
 -18.500  -0.5665   0.22625   0.21836   0.0160   1.0000   0.0703
 -18.750  -0.5751   0.22917   0.22128   0.0178   1.0000   0.0685
 -19.000  -0.5840   0.23226   0.22437   0.0195   1.0000   0.0668
 -19.250  -0.5936   0.23590   0.22803   0.0209   1.0000   0.0650
 -19.500  -0.6053   0.24149   0.23364   0.0217   1.0000   0.0635
 -19.750  -0.6226   0.25340   0.24555   0.0219   1.0000   0.0623
 -20.000  -0.6250   0.25150   0.24361   0.0248   1.0000   0.0621
