  
       XFOIL         Version 6.99
  
 Calculated polar for: NACA 64(2)-415 [NACA 6a series from Theory of Wi
  
 1 1 Reynolds number fixed          Mach number fixed         
  
 xtrf =   1.000 (top)        1.000 (bottom)  
 Mach =   0.000     Re =     0.050 e 6     Ncrit =   9.000
  
   alpha    CL        CD       CDp       CM     Top_Xtr  Bot_Xtr
  ------ -------- --------- --------- -------- -------- --------
   0.000  35.8994   0.43947   0.07281*********   0.5541   0.5417
   0.250  38.9046   0.44071   0.07423*********   0.5501   0.5480
   0.500  41.9106   0.44113   0.07590*********   0.5456   0.5556
   0.750  44.8860   0.44659   0.07862*********   0.5369   0.5605
   1.000  47.8800   0.44896   0.08066*********   0.5311   0.5656
   1.250  50.8532   0.45407   0.08398*********   0.5220   0.5720
   1.500  53.8419   0.45681   0.08678*********   0.5168   0.5765
   1.500  53.8419   0.45681   0.08678*********   0.5168   0.5765
   1.600  55.0312   0.45823   0.08792*********   0.5148   0.5778
   1.700  56.2106   0.46112   0.08942*********   0.5111   0.5789
   2.000  59.7707   0.46786   0.09421*********   0.4994   0.5859
   2.250  62.7234   0.47527   0.09920*********   0.4893   0.5911
   2.500  65.6768   0.48167   0.10367*********   0.4799   0.5951
   2.750  68.6048   0.49158   0.10989*********   0.4652   0.6008
   3.000  71.4906   0.50697   0.11838*********   0.4436   0.6066
   3.000  71.4906   0.50697   0.11841*********   0.4436   0.6066
   3.100  72.6249   0.51584   0.12269*********   0.4304   0.6085
   3.200  73.6869   0.53435   0.13048*********   0.4051   0.6103
   3.500  76.9263   0.58214   0.15479*********   0.3466   0.6162
   3.750  79.6443   0.61863   0.17528*********   0.3031   0.6226
   4.000  82.2833   0.66424   0.19912*********   0.2501   0.6276
   4.250  84.8758   0.71380   0.22644*********   0.1966   0.6329
   4.500  87.4749   0.76080   0.25364*********   0.1480   0.6396
   4.750  90.1464   0.79628   0.27586*********   0.1170   0.6448
   5.000  92.8292   0.82854   0.29791*********   0.0934   0.6506
   5.250  95.5585   0.85444   0.31766*********   0.0770   0.6575
   5.500  98.2333   0.88487   0.33985*********   0.0610   0.6627
   5.750 100.9264   0.91187   0.36181*********   0.0482   0.6704
   6.000 103.6081   0.93860   0.38404*********   0.0388   0.6774
   6.250 106.3025   0.96267   0.40504*********   0.0328   0.6840
   6.500 109.0088   0.98456   0.42593*********   0.0288   0.6919
   6.750 111.6998   1.00662   0.44635*********   0.0264   0.6974
   7.000 114.3950   1.02711   0.46704*********   0.0242   0.7054
   7.250 117.0760   1.04787   0.48770*********   0.0227   0.7121
   7.500 119.7052   1.07269   0.51141*********   0.0205   0.7186
   7.750 122.3648   1.09278   0.53254*********   0.0196   0.7262
   8.000 124.9504   1.11830   0.55692*********   0.0180   0.7317
   8.250 127.5354   1.14288   0.58218*********   0.0164   0.7400
   8.500 130.0932   1.16895   0.60772*********   0.0152   0.7467
   8.750 132.5968   1.19847   0.63702*********   0.0135   0.7540
   9.000 135.1214   1.22453   0.66421*********   0.0128   0.7621
   9.250 137.5788   1.25468   0.69450*********   0.0120   0.7698
   9.500 139.9727   1.28794   0.72880*********   0.0110   0.7786
   9.750 142.3993   1.31635   0.75897*********   0.0107   0.7861
  10.000 144.7884   1.34555   0.79007*********   0.0105   0.7948
  10.250 147.1150   1.37751   0.82313*********   0.0102   0.8020
  10.500 149.3910   1.41074   0.85833*********   0.0099   0.8109
  10.750 151.5642   1.44897   0.89802*********   0.0095   0.8189
  11.000 153.6814   1.48848   0.93997*********   0.0091   0.8288
  11.250 155.6817   1.53210   0.98680*********   0.0088   0.8386
  11.500 157.6326   1.57578   1.03379*********   0.0086   0.8489
  11.750 159.4989   1.61450   1.07669*********   0.0085   0.8620
  12.000 161.0687   1.65740   1.12402*********   0.0085   0.8753
  12.250 162.6593   1.69976   1.17096*********   0.0084   0.8911
  12.500 163.9997   1.74835   1.22525*********   0.0083   0.9091
  12.750 165.4370   1.80204   1.28523*********   0.0082   0.9316
  13.000 166.8324   1.86541   1.35563*********   0.0081   0.9561
  13.000 166.8324   1.86541   1.35563*********   0.0081   0.9561
  13.100 167.3595   1.88941   1.38369*********   0.0080   0.9700
   0.000  35.8994   0.43947   0.07280*********   0.5541   0.5416
   0.000  35.8994   0.43947   0.07279*********   0.5541   0.5416
  -0.100  34.7007   0.43876   0.07207*********   0.5567   0.5376
  -0.200  33.4915   0.43883   0.07141*********   0.5593   0.5321
  -0.500  29.8873   0.43760   0.07011*********   0.5652   0.5216
  -0.500  29.8873   0.43760   0.07011*********   0.5652   0.5216
  -0.600  28.6723   0.43893   0.06990*********   0.5665   0.5163
  -0.700  27.4623   0.43971   0.06979*********   0.5677   0.5117
  -1.000  23.8491   0.43947   0.06904*********   0.5754   0.4983
  -1.250  20.8251   0.44174   0.06913*********   0.5805   0.4825
  -1.500  17.7782   0.44690   0.06999*********   0.5837   0.4641
  -1.750  14.7374   0.45132   0.07093*********   0.5893   0.4429
  -2.000  11.6273   0.46767   0.07495*********   0.5944   0.3933
  -2.250   8.4280   0.50011   0.08482-969.0294   0.5984   0.3151
  -2.500   5.2424   0.53187   0.09535-878.6262   0.6022   0.2425
  -2.750   2.1186   0.55552   0.10439-791.6286   0.6084   0.1864
  -3.000  -0.9874   0.57791   0.11372-705.8850   0.6132   0.1407
  -3.250  -4.0789   0.59856   0.12327-621.2065   0.6166   0.1056
  -3.500  -7.1268   0.61391   0.13214-538.7797   0.6234   0.0803
  -3.750 -10.1746   0.62880   0.14126-456.6276   0.6290   0.0617
  -3.750 -10.1746   0.62880   0.14126-456.6274   0.6290   0.0617
  -3.850 -11.3844   0.63403   0.14494-424.3098   0.6309   0.0571
  -3.950 -12.5974   0.63976   0.14872-391.8690   0.6323   0.0519
  -4.250 -16.2084   0.65263   0.15956-295.8997   0.6404   0.0420
  -4.500 -19.2108   0.66319   0.16889-216.4144   0.6460   0.0368
  -4.750 -22.2179   0.67515   0.17902-136.7859   0.6505   0.0328
  -5.000 -25.1930   0.68270   0.18824 -58.7806   0.6576   0.0309
  -5.250 -28.1762   0.69310   0.19833  19.5661   0.6629   0.0290
  -5.500 -31.1585   0.70565   0.21051  97.9216   0.6679   0.0265
  -5.750 -34.1187   0.71365   0.22054 175.0853   0.6748   0.0257
  -6.000 -37.0845   0.72497   0.23197 252.5271   0.6800   0.0246
  -6.250 -40.0543   0.73951   0.24630 330.2511   0.6856   0.0226
  -6.500 -42.9933   0.75002   0.25882 406.4019   0.6923   0.0219
  -6.750 -45.9362   0.76171   0.27123 482.5862   0.6972   0.0213
  -7.000 -48.8696   0.77463   0.28501 558.4794   0.7035   0.0205
  -7.250 -51.7871   0.79020   0.30144 633.7880   0.7100   0.0193
  -7.250 -51.7871   0.79020   0.30144 633.7885   0.7100   0.0193
  -7.350 -52.9564   0.79798   0.30955 663.9744   0.7122   0.0187
  -7.450 -54.1238   0.80460   0.31667 694.0751   0.7140   0.0184
  -7.750 -57.5916   0.81883   0.33375 782.5274   0.7229   0.0181
  -8.000 -60.4818   0.83307   0.34937 856.1845   0.7292   0.0177
  -8.250 -63.3574   0.84858   0.36650 929.3035   0.7361   0.0171
  -8.500 -66.2101   0.86578   0.385271001.4614   0.7435   0.0166
  -8.750 -69.0619   0.88696   0.407321073.6282   0.7495   0.0158
  -9.000 -71.8705   0.90965   0.434001144.0540   0.7577   0.0151
  -9.250 -74.6892   0.92666   0.452341214.3911   0.7634   0.0150
  -9.500 -77.4864   0.94353   0.471721283.7589   0.7705   0.0148
  -9.750 -80.2692   0.96224   0.492801352.5023   0.7772   0.0146
 -10.000 -83.0332   0.98169   0.514061420.4222   0.7834   0.0143
 -10.250 -85.7726   1.00213   0.536691487.3977   0.7916   0.0139
 -10.500 -88.4880   1.02622   0.561861553.3832   0.7975   0.0135
 -10.750 -91.1425   1.05137   0.590251616.8644   0.8060   0.0131
 -11.000 -93.7502   1.08588   0.627851678.8469   0.8129   0.0124
 -11.250 -96.3502   1.11521   0.661561740.1796   0.8208   0.0122
 -11.500 -98.9598   1.13723   0.686181801.2516   0.8285   0.0122
 -11.750-101.5371   1.15884   0.710841860.9425   0.8371   0.0121
 -12.000-104.0865   1.18329   0.738441919.5497   0.8457   0.0119
 -12.250-106.5843   1.20941   0.768021976.0857   0.8541   0.0117
 -12.500-109.0368   1.23678   0.798642030.8088   0.8630   0.0115
 -12.750-111.4218   1.26634   0.832402082.8623   0.8733   0.0113
 -12.750-111.4218   1.26634   0.832412082.8611   0.8733   0.0113
 -12.850-112.3585   1.27879   0.846252103.0100   0.8771   0.0112
 -12.950-113.2992   1.29181   0.860532123.3882   0.8805   0.0112
 -13.250-116.0067   1.33212   0.905792179.8896   0.8941   0.0108
 -13.500-118.1263   1.37019   0.948412221.7307   0.9057   0.0105
 -13.750-120.1450   1.41219   0.995712259.8735   0.9181   0.0102
 -14.000-121.8409   1.46241   1.054172285.5425   0.9355   0.0098
 -14.250-123.7469   1.50665   1.104862319.7439   0.9542   0.0097
 -14.500-126.5753   1.54989   1.150272392.8188   0.9653   0.0097
 -14.750-129.4054   1.59817   1.200232466.8926   0.9723   0.0096
 -15.000-131.5323   1.64944   1.253552513.2700   0.9745   0.0095
 -15.250-132.7860   1.70923   1.316322526.4077   0.9745   0.0095
 -15.500-133.3342   1.77237   1.382572510.6511   0.9745   0.0094
 -15.750-134.2509   1.84398   1.457522511.8777   0.9745   0.0093
 -16.000-135.3784   1.91860   1.534732522.6135   0.9745   0.0092
 -16.250-136.4975   2.00226   1.621732534.8093   0.9745   0.0091
 -16.500-137.5583   2.09602   1.718372546.7410   0.9745   0.0090
 -16.750-138.5981   2.19599   1.821292559.1582   0.9745   0.0088
 -17.000-139.6860   2.29696   1.924652574.1611   0.9745   0.0087
 -17.250-140.5495   2.41897   2.050922583.8274   0.9745   0.0086
 -17.500-141.4538   2.54100   2.175412595.7659   0.9745   0.0084
 -17.750-142.2176   2.67700   2.315462604.7935   0.9745   0.0082
 -18.000-142.5475   2.85283   2.496672603.9380   0.9745   0.0080
 -18.250-142.9888   3.02236   2.671032606.9705   0.9745   0.0078
 -18.500-143.1665   3.21890   2.874032604.8496   0.9745   0.0077
 -18.750-143.3404   3.42094   3.082312604.0620   0.9745   0.0075
 -19.000-143.9395   3.58456   3.249622613.1680   0.9745   0.0075
 -19.250-143.9410   3.81319   3.484792610.9224   0.9745   0.0075
 -19.500-144.2485   4.01136   3.687482615.1912   0.9745   0.0075
 -19.750-144.3514   4.24162   3.923182617.1252   0.9745   0.0075
 -20.000-144.3598   4.49049   4.177782618.6992   0.9745   0.0075
