  
       XFOIL         Version 6.99
  
 Calculated polar for: MUE 139                                         
  
 1 1 Reynolds number fixed          Mach number fixed         
  
 xtrf =   1.000 (top)        1.000 (bottom)  
 Mach =   0.000     Re =     0.050 e 6     Ncrit =   9.000
  
   alpha    CL        CD       CDp       CM     Top_Xtr  Bot_Xtr
  ------ -------- --------- --------- -------- -------- --------
   0.000   0.3644   0.03674   0.02665  -0.0717   0.6222   0.2783
   0.250   0.4036   0.03603   0.02574  -0.0719   0.6139   0.2986
   0.500   0.4174   0.03702   0.02684  -0.0709   0.6012   0.3147
   0.750   0.4564   0.03615   0.02597  -0.0710   0.5937   0.3530
   1.000   0.4649   0.03733   0.02748  -0.0697   0.5820   0.3869
   1.250   0.5434   0.03507   0.02656  -0.0765   0.5728   1.0000
   1.500   0.5506   0.03701   0.02834  -0.0748   0.5633   1.0000
   1.750   0.5844   0.03706   0.02799  -0.0741   0.5574   1.0000
   2.000   0.5714   0.04056   0.03157  -0.0718   0.5475   1.0000
   2.250   0.5970   0.04126   0.03203  -0.0709   0.5412   1.0000
   2.500   0.5948   0.04427   0.03501  -0.0693   0.5351   1.0000
   2.750   0.5685   0.04904   0.03984  -0.0674   0.5287   1.0000
   3.000   0.5898   0.05026   0.04089  -0.0665   0.5232   1.0000
   3.250   0.5965   0.05273   0.04326  -0.0654   0.5183   1.0000
   3.500   0.5453   0.05926   0.04985  -0.0634   0.5172   1.0000
   3.750   0.5282   0.06357   0.05413  -0.0627   0.5175   1.0000
   4.000   0.5201   0.06730   0.05781  -0.0624   0.5178   1.0000
   4.250   0.5206   0.07064   0.06109  -0.0623   0.5187   1.0000
   4.250   0.5095   0.07131   0.06180  -0.0625   0.5221   1.0000
   4.350   0.5187   0.07222   0.06266  -0.0625   0.5212   1.0000
   4.450   0.5296   0.07312   0.06351  -0.0626   0.5203   1.0000
   5.250   0.4048   0.08993   0.08063  -0.0667   0.6379   1.0000
   5.250   0.4048   0.08993   0.08063  -0.0667   0.6379   1.0000
   5.350   0.4181   0.09132   0.08196  -0.0672   0.6351   1.0000
   5.450   0.4367   0.09338   0.08396  -0.0683   0.6329   1.0000
   5.750   0.4315   0.09448   0.08499  -0.0662   0.6186   1.0000
   6.000   0.4582   0.09821   0.08860  -0.0671   0.6119   1.0000
   6.250   0.4601   0.09929   0.08963  -0.0658   0.5985   1.0000
   6.500   0.4726   0.10214   0.09240  -0.0658   0.5912   1.0000
   6.500   0.4726   0.10214   0.09240  -0.0658   0.5912   1.0000
   6.600   0.4702   0.10230   0.09256  -0.0650   0.5844   1.0000
   6.700   0.4811   0.10350   0.09372  -0.0653   0.5802   1.0000
   7.000   0.4896   0.10623   0.09639  -0.0647   0.5679   1.0000
   7.250   0.5191   0.10976   0.09985  -0.0654   0.5588   1.0000
   7.500   0.5126   0.11110   0.10116  -0.0642   0.5473   1.0000
   7.750   0.5528   0.11584   0.10583  -0.0656   0.5391   1.0000
   8.000   0.5370   0.11618   0.10616  -0.0640   0.5265   1.0000
   8.250   0.5791   0.12165   0.11157  -0.0654   0.5203   1.0000
   8.500   0.5592   0.12145   0.11136  -0.0638   0.5072   1.0000
   8.750   0.5899   0.12626   0.11613  -0.0647   0.5010   1.0000
   9.000   0.5815   0.12682   0.11669  -0.0637   0.4880   1.0000
   9.250   0.6130   0.13207   0.12189  -0.0646   0.4828   1.0000
   9.500   0.5979   0.13211   0.12194  -0.0637   0.4706   1.0000
   9.750   0.6392   0.13825   0.12805  -0.0648   0.4647   1.0000
  10.000   0.6155   0.13749   0.12729  -0.0639   0.4528   1.0000
  10.250   0.6493   0.14268   0.13247  -0.0645   0.4472   1.0000
  10.500   0.6305   0.14306   0.13285  -0.0643   0.4381   1.0000
  10.750   0.6539   0.14679   0.13657  -0.0646   0.4303   1.0000
  11.000   0.6532   0.14929   0.13907  -0.0650   0.4243   1.0000
  11.250   0.6610   0.15145   0.14124  -0.0651   0.4147   1.0000
  11.500   0.6945   0.15735   0.14714  -0.0657   0.4101   1.0000
  11.750   0.6739   0.15708   0.14686  -0.0661   0.4026   1.0000
  12.000   0.6906   0.16023   0.15001  -0.0664   0.3947   1.0000
  12.250   0.7196   0.16652   0.15632  -0.0669   0.3908   1.0000
  12.500   0.6991   0.16526   0.15505  -0.0677   0.3821   1.0000
  12.750   0.7174   0.16885   0.15866  -0.0680   0.3761   1.0000
  13.000   0.7431   0.17510   0.16492  -0.0685   0.3727   1.0000
  13.250   0.7245   0.17358   0.16340  -0.0696   0.3641   1.0000
  13.500   0.7438   0.17735   0.16719  -0.0698   0.3579   1.0000
  13.750   0.7693   0.18401   0.17387  -0.0704   0.3550   1.0000
  14.000   0.7495   0.18194   0.17181  -0.0719   0.3477   1.0000
  14.250   0.7649   0.18519   0.17508  -0.0723   0.3413   1.0000
  14.500   0.7991   0.19355   0.18346  -0.0724   0.3377   1.0000
  14.750   0.7751   0.19026   0.18016  -0.0745   0.3314   1.0000
  15.000   0.7864   0.19303   0.18297  -0.0751   0.3254   1.0000
  15.250   0.8118   0.19904   0.18902  -0.0752   0.3214   1.0000
  15.500   0.8042   0.19933   0.18930  -0.0771   0.3176   1.0000
  15.750   0.8092   0.20098   0.19097  -0.0783   0.3103   1.0000
  16.000   0.8265   0.20507   0.19510  -0.0786   0.3059   1.0000
  16.250   0.8500   0.21248   0.20255  -0.0790   0.3035   1.0000
  16.500   0.8335   0.20937   0.19944  -0.0817   0.2980   1.0000
  16.750   0.8439   0.21198   0.20207  -0.0825   0.2919   1.0000
  17.000   0.8648   0.21744   0.20759  -0.0827   0.2881   1.0000
  17.250   0.8714   0.22091   0.21107  -0.0841   0.2861   1.0000
  17.500   0.8659   0.22001   0.21018  -0.0865   0.2807   1.0000
  17.750   0.8762   0.22270   0.21291  -0.0875   0.2755   1.0000
  18.000   0.8958   0.22811   0.21837  -0.0876   0.2718   1.0000
  18.250   0.9041   0.23202   0.22230  -0.0890   0.2698   1.0000
  18.500   0.8985   0.23075   0.22104  -0.0917   0.2651   1.0000
  18.750   0.9071   0.23318   0.22351  -0.0929   0.2604   1.0000
  19.000   0.9218   0.23720   0.22759  -0.0935   0.2567   1.0000
  19.250   0.9480   0.24728   0.23773  -0.0933   0.2544   1.0000
  19.500   0.9326   0.24200   0.23244  -0.0970   0.2513   1.0000
  19.750   0.9379   0.24363   0.23410  -0.0988   0.2466   1.0000
  20.000   0.9485   0.24661   0.23712  -0.0998   0.2427   1.0000
   0.000   0.3644   0.03674   0.02665  -0.0717   0.6222   0.2783
  -0.250   0.3479   0.03610   0.02609  -0.0729   0.6344   0.2670
  -0.500   0.3170   0.03670   0.02686  -0.0734   0.6448   0.2563
  -0.750   0.2941   0.03678   0.02705  -0.0744   0.6566   0.2467
  -1.000   0.2776   0.03678   0.02708  -0.0758   0.6708   0.2416
  -1.250   0.2436   0.03788   0.02865  -0.0762   0.6809   0.2346
  -1.500   0.2224   0.03832   0.02928  -0.0774   0.6944   0.2296
  -1.750   0.2041   0.03887   0.02999  -0.0787   0.7095   0.2274
  -2.000   0.1736   0.04054   0.03184  -0.0791   0.7211   0.2237
  -2.250   0.1496   0.04185   0.03354  -0.0798   0.7352   0.2231
  -2.500   0.1273   0.04351   0.03585  -0.0800   0.7504   0.2305
  -2.750   0.1078   0.04544   0.03813  -0.0802   0.7668   0.2367
  -3.000   0.0745   0.04842   0.04128  -0.0795   0.7800   0.2432
  -3.000   0.0712   0.04950   0.04287  -0.0763   0.7793   0.2667
  -3.100   0.0682   0.04989   0.04308  -0.0783   0.7875   0.2623
  -3.500   0.4384   0.03923   0.03320  -0.0792   0.7925   1.0000
  -3.750   0.1481   0.05700   0.05164  -0.0419   0.8368   0.6734
  -4.000   0.0440   0.06352   0.05834  -0.0380   0.8554   0.5660
  -4.250  -0.0003   0.06668   0.06155  -0.0381   0.8734   0.4969
  -4.500  -0.0641   0.07195   0.06686  -0.0356   0.8883   0.4499
  -4.750  -0.0960   0.07498   0.06990  -0.0324   0.9063   0.4060
  -5.000  -0.1510   0.07998   0.07492  -0.0285   0.9211   0.3720
  -5.250  -0.1851   0.08347   0.07843  -0.0219   0.9397   0.3427
  -5.500  -0.2350   0.08836   0.08334  -0.0164   0.9558   0.3205
  -5.750  -0.2845   0.09364   0.08865  -0.0112   0.9710   0.3002
  -6.000  -0.3288   0.09859   0.09360  -0.0043   0.9875   0.2810
  -6.250  -0.2978   0.09787   0.09276   0.0009   1.0000   0.2737
  -6.500  -0.2643   0.09676   0.09147  -0.0038   1.0000   0.2719
  -6.750  -0.2301   0.09547   0.08997  -0.0095   1.0000   0.2700
  -7.000  -0.2309   0.09717   0.09151  -0.0133   1.0000   0.2640
  -7.250  -0.2291   0.09972   0.09388  -0.0155   1.0000   0.2603
  -7.500  -0.1981   0.09858   0.09247  -0.0168   1.0000   0.2536
  -7.750  -0.2128   0.10170   0.09549  -0.0183   1.0000   0.2455
  -8.000  -0.2189   0.10511   0.09877  -0.0190   1.0000   0.2414
  -8.250  -0.2013   0.10494   0.09842  -0.0187   1.0000   0.2338
  -8.500  -0.2197   0.10866   0.10208  -0.0199   1.0000   0.2265
  -8.750  -0.2258   0.11217   0.10548  -0.0201   1.0000   0.2228
  -9.000  -0.2119   0.11212   0.10530  -0.0191   1.0000   0.2155
  -9.250  -0.2287   0.11574   0.10886  -0.0200   1.0000   0.2084
  -9.500  -0.2442   0.12068   0.11373  -0.0204   1.0000   0.2048
  -9.750  -0.2271   0.11992   0.11284  -0.0186   1.0000   0.1994
 -10.000  -0.2337   0.12241   0.11528  -0.0184   1.0000   0.1934
 -10.250  -0.2575   0.12768   0.12052  -0.0195   1.0000   0.1887
 -10.500  -0.2647   0.13166   0.12442  -0.0190   1.0000   0.1864
 -10.750  -0.2501   0.13078   0.12344  -0.0170   1.0000   0.1823
 -11.000  -0.2548   0.13303   0.12563  -0.0163   1.0000   0.1768
 -11.250  -0.2725   0.13739   0.12996  -0.0168   1.0000   0.1717
 -11.500  -0.2948   0.14430   0.13684  -0.0173   1.0000   0.1689
 -11.750  -0.2775   0.14237   0.13482  -0.0147   1.0000   0.1663
 -12.000  -0.2791   0.14405   0.13645  -0.0136   1.0000   0.1616
 -12.250  -0.2881   0.14702   0.13937  -0.0131   1.0000   0.1575
 -12.500  -0.3062   0.15201   0.14435  -0.0134   1.0000   0.1540
 -12.750  -0.3271   0.15928   0.15159  -0.0135   1.0000   0.1519
 -13.000  -0.3125   0.15701   0.14923  -0.0109   1.0000   0.1501
 -13.250  -0.3131   0.15813   0.15032  -0.0093   1.0000   0.1458
 -13.500  -0.3216   0.16097   0.15312  -0.0086   1.0000   0.1416
 -13.750  -0.3370   0.16557   0.15771  -0.0086   1.0000   0.1382
 -14.000  -0.3661   0.17559   0.16770  -0.0092   1.0000   0.1361
 -14.250  -0.3526   0.17269   0.16474  -0.0065   1.0000   0.1351
 -14.500  -0.3506   0.17264   0.16464  -0.0044   1.0000   0.1322
 -14.750  -0.3572   0.17497   0.16695  -0.0032   1.0000   0.1285
 -15.000  -0.3681   0.17840   0.17035  -0.0025   1.0000   0.1249
 -15.250  -0.3903   0.18602   0.17798  -0.0030   1.0000   0.1222
 -15.500  -0.3975   0.18968   0.18158  -0.0016   1.0000   0.1212
 -15.750  -0.3920   0.18782   0.17967   0.0010   1.0000   0.1196
 -16.000  -0.3965   0.18928   0.18111   0.0028   1.0000   0.1165
 -16.250  -0.4051   0.19202   0.18382   0.0040   1.0000   0.1133
 -16.500  -0.4171   0.19588   0.18767   0.0046   1.0000   0.1105
 -16.500  -0.4171   0.19588   0.18767   0.0046   1.0000   0.1105
 -16.600  -0.4245   0.19864   0.19043   0.0045   1.0000   0.1095
 -16.700  -0.4358   0.20341   0.19521   0.0041   1.0000   0.1087
 -17.000  -0.4379   0.20436   0.19609   0.0067   1.0000   0.1078
 -17.250  -0.4388   0.20396   0.19565   0.0092   1.0000   0.1059
 -17.500  -0.4459   0.20605   0.19772   0.0109   1.0000   0.1032
 -17.750  -0.4551   0.20891   0.20056   0.0121   1.0000   0.1005
 -18.000  -0.4674   0.21315   0.20480   0.0128   1.0000   0.0981
 -18.000  -0.4674   0.21315   0.20480   0.0128   1.0000   0.0981
 -18.100  -0.4745   0.21618   0.20782   0.0127   1.0000   0.0974
 -18.200  -0.4876   0.22279   0.21445   0.0121   1.0000   0.0968
 -18.500  -0.4848   0.21988   0.21146   0.0156   1.0000   0.0960
 -18.750  -0.4891   0.22041   0.21195   0.0180   1.0000   0.0942
 -19.000  -0.4970   0.22268   0.21420   0.0197   1.0000   0.0919
 -19.250  -0.5062   0.22547   0.21698   0.0211   1.0000   0.0898
 -19.500  -0.5172   0.22924   0.22074   0.0221   1.0000   0.0878
 -19.500  -0.5172   0.22923   0.22074   0.0221   1.0000   0.0878
 -19.600  -0.5228   0.23154   0.22305   0.0223   1.0000   0.0872
 -19.700  -0.5305   0.23543   0.22694   0.0222   1.0000   0.0867
 -20.000  -0.5356   0.23614   0.22759   0.0250   1.0000   0.0859
