  
       XFOIL         Version 6.99
  
 Calculated polar for: HOBIE                                           
  
 1 1 Reynolds number fixed          Mach number fixed         
  
 xtrf =   1.000 (top)        1.000 (bottom)  
 Mach =   0.000     Re =     0.050 e 6     Ncrit =   9.000
  
   alpha    CL        CD       CDp       CM     Top_Xtr  Bot_Xtr
  ------ -------- --------- --------- -------- -------- --------
   0.000   0.1012   0.02265   0.01419  -0.0552   0.9988   1.0000
   0.250   0.1565   0.02394   0.01493  -0.0616   0.9838   1.0000
   0.500   0.2050   0.02501   0.01565  -0.0668   0.9680   1.0000
   0.750   0.2508   0.02598   0.01636  -0.0712   0.9516   1.0000
   1.000   0.2946   0.02688   0.01708  -0.0752   0.9353   1.0000
   1.250   0.3372   0.02773   0.01777  -0.0788   0.9189   1.0000
   1.500   0.3783   0.02852   0.01845  -0.0819   0.9027   1.0000
   1.750   0.4179   0.02926   0.01912  -0.0846   0.8867   1.0000
   2.000   0.4567   0.02996   0.01978  -0.0871   0.8709   1.0000
   2.250   0.4962   0.03056   0.02036  -0.0893   0.8548   1.0000
   2.500   0.5363   0.03105   0.02084  -0.0914   0.8387   1.0000
   2.750   0.5765   0.03143   0.02127  -0.0933   0.8229   1.0000
   3.000   0.6170   0.03172   0.02160  -0.0951   0.8073   1.0000
   3.250   0.6562   0.03196   0.02191  -0.0964   0.7919   1.0000
   3.500   0.6910   0.03224   0.02229  -0.0969   0.7768   1.0000
   3.750   0.7255   0.03244   0.02259  -0.0972   0.7614   1.0000
   4.000   0.7599   0.03254   0.02282  -0.0972   0.7459   1.0000
   4.250   0.7914   0.03277   0.02317  -0.0969   0.7307   1.0000
   4.500   0.8203   0.03315   0.02369  -0.0963   0.7156   1.0000
   4.750   0.8501   0.03342   0.02410  -0.0957   0.7001   1.0000
   5.000   0.8813   0.03353   0.02440  -0.0949   0.6843   1.0000
   5.250   0.9129   0.03357   0.02462  -0.0941   0.6682   1.0000
   5.500   0.9324   0.03426   0.02548  -0.0923   0.6481   1.0000
   5.750   0.9721   0.03275   0.02417  -0.0903   0.6247   1.0000
   6.000   1.0026   0.03168   0.02323  -0.0876   0.5977   1.0000
   6.250   1.0335   0.03060   0.02227  -0.0851   0.5705   1.0000
   6.500   1.0623   0.02951   0.02129  -0.0823   0.5401   1.0000
   6.750   1.0884   0.02827   0.02004  -0.0789   0.5036   1.0000
   7.000   1.1051   0.02740   0.01912  -0.0747   0.4571   1.0000
   7.250   1.1117   0.02726   0.01885  -0.0696   0.3932   1.0000
   7.500   1.1045   0.02831   0.01930  -0.0634   0.2879   1.0000
   7.750   1.1005   0.03125   0.02116  -0.0589   0.2120   1.0000
   8.000   1.1149   0.03401   0.02350  -0.0568   0.1747   1.0000
   8.250   1.1324   0.03590   0.02539  -0.0550   0.1524   1.0000
   8.500   1.1564   0.03790   0.02732  -0.0539   0.1383   1.0000
   8.750   1.1815   0.04007   0.02950  -0.0531   0.1265   1.0000
   9.000   1.2132   0.04297   0.03248  -0.0530   0.1191   1.0000
   9.250   1.2384   0.04588   0.03560  -0.0524   0.1129   1.0000
   9.500   1.2604   0.04938   0.03925  -0.0517   0.1080   1.0000
   9.750   1.2735   0.05310   0.04352  -0.0499   0.1063   1.0000
  10.000   1.2815   0.05721   0.04814  -0.0479   0.1057   1.0000
  10.250   1.2827   0.06140   0.05281  -0.0457   0.1053   1.0000
  10.500   1.2772   0.06567   0.05751  -0.0433   0.1050   1.0000
  10.750   1.2660   0.07003   0.06225  -0.0409   0.1051   1.0000
  11.000   1.2490   0.07441   0.06694  -0.0385   0.1056   1.0000
  11.250   1.2273   0.07877   0.07154  -0.0364   0.1063   1.0000
  11.500   1.2040   0.08364   0.07660  -0.0354   0.1073   1.0000
  11.750   1.1827   0.08912   0.08222  -0.0357   0.1083   1.0000
  12.000   1.1633   0.09519   0.08840  -0.0369   0.1091   1.0000
  12.000   1.1633   0.09519   0.08840  -0.0369   0.1091   1.0000
  12.100   1.1577   0.09772   0.09096  -0.0375   0.1094   1.0000
  12.500   0.9908   0.13505   0.12826  -0.0675   0.1321   1.0000
  12.250   1.0448   0.11560   0.10899  -0.0536   0.1201   1.0000
  12.350   1.0409   0.11887   0.11225  -0.0550   0.1210   1.0000
  12.450   1.0407   0.12148   0.11487  -0.0557   0.1218   1.0000
  12.750   0.7789   0.14985   0.14349  -0.0712   0.1810   1.0000
  13.000   0.9293   0.17187   0.16488  -0.0938   0.2626   1.0000
  13.250   0.9141   0.17427   0.16722  -0.0968   0.2570   1.0000
  13.500   0.9289   0.17913   0.17212  -0.0971   0.2508   1.0000
  13.750   0.9288   0.18322   0.17619  -0.0990   0.2470   1.0000
  14.000   0.9294   0.18641   0.17937  -0.1008   0.2399   1.0000
  14.250   0.9463   0.19208   0.18512  -0.1010   0.2362   1.0000
  14.500   0.9480   0.19622   0.18924  -0.1031   0.2338   1.0000
  14.750   0.9439   0.19835   0.19133  -0.1057   0.2274   1.0000
  15.000   0.9639   0.20440   0.19744  -0.1054   0.2216   1.0000
  15.250   0.9603   0.20698   0.19997  -0.1083   0.2181   1.0000
  15.500   0.9642   0.20983   0.20282  -0.1101   0.2105   1.0000
  15.750   0.9949   0.21981   0.21289  -0.1085   0.2056   1.0000
  16.000   0.9773   0.21766   0.21065  -0.1134   0.2018   1.0000
  16.250   0.9839   0.22094   0.21393  -0.1150   0.1956   1.0000
  16.750   0.9991   0.22903   0.22205  -0.1182   0.1879   1.0000
  17.000   1.0047   0.23173   0.22475  -0.1201   0.1808   1.0000
  16.750   0.9991   0.22903   0.22205  -0.1182   0.1879   1.0000
  16.850   0.9991   0.22961   0.22262  -0.1194   0.1851   1.0000
  16.950   1.0023   0.23089   0.22391  -0.1200   0.1822   1.0000
  17.250   1.0272   0.24055   0.23363  -0.1191   0.1757   1.0000
  17.500   1.0182   0.23873   0.23175  -0.1238   0.1711   1.0000
  17.750   1.0300   0.24290   0.23595  -0.1245   0.1643   1.0000
  18.000   1.0434   0.24941   0.24247  -0.1252   0.1613   1.0000
  18.250   1.0399   0.24887   0.24189  -0.1292   0.1563   1.0000
  18.500   1.0514   0.25306   0.24612  -0.1301   0.1508   1.0000
  18.750   1.0648   0.25965   0.25273  -0.1307   0.1479   1.0000
  19.000   1.0622   0.25892   0.25194  -0.1349   0.1432   1.0000
  19.250   1.0738   0.26314   0.25623  -0.1357   0.1374   1.0000
  19.500   1.0840   0.26847   0.26156  -0.1369   0.1345   1.0000
  19.750   1.0845   0.26856   0.26162  -0.1407   0.1297   1.0000
  20.000   1.0963   0.27299   0.26609  -0.1413   0.1243   1.0000
   0.000   0.1012   0.02265   0.01419  -0.0552   0.9988   1.0000
  -0.250   0.0864   0.02300   0.01431  -0.0562   1.0000   0.6473
  -0.500   0.0626   0.02476   0.01439  -0.0573   1.0000   0.3477
  -0.750   0.0372   0.02535   0.01461  -0.0572   1.0000   0.2720
  -1.000   0.0132   0.02575   0.01499  -0.0573   1.0000   0.2465
  -1.250  -0.0092   0.02610   0.01543  -0.0576   1.0000   0.2289
  -1.500  -0.0304   0.02652   0.01593  -0.0580   1.0000   0.2159
  -1.750  -0.0519   0.02712   0.01657  -0.0585   1.0000   0.2082
  -2.000  -0.0765   0.02803   0.01784  -0.0585   1.0000   0.2028
  -2.250  -0.1005   0.02903   0.01912  -0.0586   1.0000   0.1974
  -2.500  -0.1234   0.03010   0.02033  -0.0587   1.0000   0.1908
  -2.750  -0.1508   0.03185   0.02258  -0.0579   1.0000   0.1882
  -3.000  -0.1790   0.03414   0.02536  -0.0566   1.0000   0.1885
  -3.250  -0.2069   0.03673   0.02842  -0.0549   1.0000   0.1869
  -3.500  -0.2345   0.03995   0.03209  -0.0527   1.0000   0.1893
  -4.250  -0.3785   0.06542   0.05971   0.0040   1.0000   0.4223
  -4.500  -0.3792   0.06776   0.06199   0.0010   1.0000   0.4045
  -4.250  -0.3785   0.06542   0.05971   0.0040   1.0000   0.4223
  -4.350  -0.3825   0.06686   0.06113   0.0017   1.0000   0.4180
  -4.450  -0.3775   0.06716   0.06140   0.0019   1.0000   0.4069
  -4.750  -0.3807   0.07032   0.06449  -0.0023   1.0000   0.3874
  -5.000  -0.3834   0.07321   0.06732  -0.0060   1.0000   0.3710
  -5.250  -0.3750   0.07466   0.06867  -0.0066   1.0000   0.3542
  -5.500  -0.3713   0.07671   0.07062  -0.0085   1.0000   0.3388
  -5.750  -0.3806   0.08022   0.07409  -0.0122   1.0000   0.3260
  -6.000  -0.3714   0.08137   0.07513  -0.0124   1.0000   0.3129
  -6.250  -0.3603   0.08286   0.07647  -0.0129   1.0000   0.3023
  -6.500  -0.3623   0.08570   0.07925  -0.0144   1.0000   0.2935
  -6.750  -0.3767   0.08981   0.08333  -0.0168   1.0000   0.2812
  -7.000  -0.3522   0.08959   0.08290  -0.0173   1.0000   0.2737
  -7.250  -0.3566   0.09269   0.08592  -0.0186   1.0000   0.2638
  -7.750  -0.3517   0.09695   0.08998  -0.0202   1.0000   0.2461
  -8.000  -0.3764   0.10279   0.09587  -0.0216   1.0000   0.2369
  -8.250  -0.3551   0.10222   0.09510  -0.0208   1.0000   0.2313
  -8.500  -0.3823   0.10866   0.10160  -0.0224   1.0000   0.2222
  -8.750  -0.3615   0.10782   0.10058  -0.0208   1.0000   0.2172
  -8.500  -0.3823   0.10866   0.10160  -0.0224   1.0000   0.2222
  -8.600  -0.3709   0.10793   0.10079  -0.0217   1.0000   0.2212
  -8.700  -0.3630   0.10761   0.10039  -0.0210   1.0000   0.2189
  -9.000  -0.3847   0.11386   0.10668  -0.0224   1.0000   0.2071
  -9.250  -0.3687   0.11341   0.10607  -0.0205   1.0000   0.2019
  -9.500  -0.3924   0.11973   0.11244  -0.0220   1.0000   0.1924
  -9.750  -0.3772   0.11923   0.11181  -0.0198   1.0000   0.1876
 -10.000  -0.3925   0.12372   0.11631  -0.0205   1.0000   0.1796
 -10.250  -0.3926   0.12645   0.11897  -0.0194   1.0000   0.1764
 -10.500  -0.3906   0.12800   0.12046  -0.0181   1.0000   0.1699
 -10.750  -0.4166   0.13563   0.12813  -0.0197   1.0000   0.1631
 -11.000  -0.4031   0.13480   0.12719  -0.0171   1.0000   0.1605
 -11.250  -0.4070   0.13725   0.12962  -0.0163   1.0000   0.1531
 -11.500  -0.4254   0.14379   0.13618  -0.0170   1.0000   0.1479
 -11.750  -0.4170   0.14360   0.13589  -0.0145   1.0000   0.1445
 -12.000  -0.4225   0.14641   0.13870  -0.0137   1.0000   0.1385
 -12.250  -0.4502   0.15567   0.14801  -0.0152   1.0000   0.1336
 -12.500  -0.4394   0.15457   0.14683  -0.0125   1.0000   0.1323
 -12.750  -0.4384   0.15573   0.14794  -0.0105   1.0000   0.1283
 -13.000  -0.4458   0.15895   0.15115  -0.0097   1.0000   0.1235
 -13.250  -0.4721   0.16859   0.16083  -0.0110   1.0000   0.1191
 -13.500  -0.4632   0.16725   0.15941  -0.0083   1.0000   0.1180
 -13.750  -0.4631   0.16823   0.16036  -0.0061   1.0000   0.1143
 -14.000  -0.4705   0.17129   0.16341  -0.0051   1.0000   0.1097
 -14.250  -0.4984   0.18233   0.17451  -0.0066   1.0000   0.1051
 -14.500  -0.4922   0.18108   0.17321  -0.0039   1.0000   0.1045
 -14.750  -0.4912   0.18127   0.17335  -0.0014   1.0000   0.1024
 -15.000  -0.4966   0.18363   0.17569   0.0002   1.0000   0.0993
 -15.250  -0.5044   0.18677   0.17882   0.0015   1.0000   0.0961
 -15.500  -0.5153   0.19104   0.18311   0.0021   1.0000   0.0933
 -15.750  -0.5368   0.20159   0.19368   0.0015   1.0000   0.0911
 -16.000  -0.5337   0.20008   0.19211   0.0043   1.0000   0.0905
 -16.250  -0.5352   0.20018   0.19218   0.0069   1.0000   0.0890
 -16.500  -0.5411   0.20227   0.19425   0.0089   1.0000   0.0863
 -16.750  -0.5489   0.20517   0.19716   0.0104   1.0000   0.0833
 -17.000  -0.5583   0.20877   0.20077   0.0115   1.0000   0.0804
 -17.250  -0.5736   0.21619   0.20822   0.0115   1.0000   0.0779
 -17.500  -0.5866   0.22365   0.21566   0.0124   1.0000   0.0770
 -17.750  -0.5872   0.22230   0.21428   0.0152   1.0000   0.0766
 -18.000  -0.5908   0.22232   0.21427   0.0178   1.0000   0.0756
 -18.250  -0.5971   0.22400   0.21594   0.0201   1.0000   0.0740
 -18.500  -0.6048   0.22657   0.21851   0.0220   1.0000   0.0721
 -18.750  -0.6130   0.22948   0.22140   0.0237   1.0000   0.0702
 -19.000  -0.6215   0.23257   0.22450   0.0254   1.0000   0.0684
 -19.250  -0.6306   0.23599   0.22794   0.0268   1.0000   0.0668
 -19.500  -0.6409   0.24056   0.23253   0.0279   1.0000   0.0652
 -20.000  -0.6646   0.25483   0.24681   0.0299   1.0000   0.0634
