  
       XFOIL         Version 6.99
  
 Calculated polar for: AG11                                            
  
 1 1 Reynolds number fixed          Mach number fixed         
  
 xtrf =   1.000 (top)        1.000 (bottom)  
 Mach =   0.000     Re =     0.050 e 6     Ncrit =   9.000
  
   alpha    CL        CD       CDp       CM     Top_Xtr  Bot_Xtr
  ------ -------- --------- --------- -------- -------- --------
   0.000   0.1481   0.01495   0.00555  -0.0260   1.0000   1.0000
   0.250   0.1706   0.01517   0.00552  -0.0255   1.0000   1.0000
   0.500   0.1928   0.01545   0.00563  -0.0251   1.0000   1.0000
   0.750   0.2147   0.01579   0.00585  -0.0249   1.0000   1.0000
   1.000   0.2360   0.01623   0.00618  -0.0248   1.0000   1.0000
   1.250   0.2566   0.01676   0.00664  -0.0249   1.0000   1.0000
   1.500   0.2763   0.01742   0.00726  -0.0253   1.0000   1.0000
   1.750   0.2951   0.01824   0.00806  -0.0259   1.0000   1.0000
   2.000   0.3535   0.01916   0.00902  -0.0340   0.9780   1.0000
   2.250   0.4417   0.01956   0.00957  -0.0458   0.9341   1.0000
   2.500   0.5147   0.01943   0.00967  -0.0528   0.8889   1.0000
   2.750   0.5599   0.01923   0.00955  -0.0535   0.8429   1.0000
   3.000   0.5876   0.01923   0.00955  -0.0509   0.7950   1.0000
   3.250   0.6101   0.01935   0.00959  -0.0473   0.7470   1.0000
   3.500   0.6310   0.01956   0.00966  -0.0436   0.6997   1.0000
   3.750   0.6516   0.01997   0.00998  -0.0405   0.6486   1.0000
   4.000   0.6732   0.02043   0.01022  -0.0376   0.6000   1.0000
   4.250   0.6950   0.02107   0.01068  -0.0353   0.5490   1.0000
   4.500   0.7172   0.02177   0.01114  -0.0331   0.5015   1.0000
   4.750   0.7397   0.02262   0.01178  -0.0313   0.4546   1.0000
   5.000   0.7626   0.02359   0.01265  -0.0298   0.4103   1.0000
   5.250   0.7856   0.02468   0.01355  -0.0284   0.3701   1.0000
   5.500   0.8089   0.02592   0.01469  -0.0273   0.3330   1.0000
   5.750   0.8325   0.02725   0.01582  -0.0262   0.3015   1.0000
   6.000   0.8563   0.02880   0.01746  -0.0254   0.2741   1.0000
   6.250   0.8799   0.03060   0.01946  -0.0247   0.2507   1.0000
   6.500   0.9035   0.03222   0.02096  -0.0239   0.2310   1.0000
   6.750   0.9273   0.03451   0.02348  -0.0233   0.2171   1.0000
   7.000   0.9497   0.03687   0.02619  -0.0226   0.2042   1.0000
   7.250   0.9706   0.03918   0.02881  -0.0220   0.1911   1.0000
   7.500   0.9878   0.04292   0.03321  -0.0215   0.1840   1.0000
   7.750   1.0056   0.04646   0.03713  -0.0210   0.1784   1.0000
   8.000   1.0190   0.05065   0.04176  -0.0207   0.1733   1.0000
   8.250   1.0247   0.05558   0.04730  -0.0208   0.1680   1.0000
   8.500   1.0456   0.05834   0.04998  -0.0199   0.1618   1.0000
   8.750   1.0449   0.06467   0.05686  -0.0205   0.1623   1.0000
   9.000   0.9985   0.07714   0.06999  -0.0267   0.1717   1.0000
   9.250   0.9814   0.08561   0.07857  -0.0309   0.1776   1.0000
   9.250   0.9814   0.08561   0.07857  -0.0309   0.1776   1.0000
   9.350   0.9968   0.08618   0.07917  -0.0289   0.1760   1.0000
   9.750   0.8543   0.12488   0.11734  -0.0723   0.3431   1.0000
  10.000   0.8620   0.12896   0.12146  -0.0718   0.3293   1.0000
  10.250   0.8727   0.13327   0.12583  -0.0712   0.3156   1.0000
  10.500   0.8484   0.13527   0.12772  -0.0733   0.3070   1.0000
  10.750   0.8636   0.14056   0.13309  -0.0731   0.3005   1.0000
  11.000   0.8567   0.14344   0.13595  -0.0742   0.2908   1.0000
  11.250   0.8602   0.14789   0.14042  -0.0749   0.2849   1.0000
  11.500   0.8661   0.15176   0.14433  -0.0752   0.2755   1.0000
  11.750   0.8624   0.15539   0.14794  -0.0766   0.2692   1.0000
  12.000   0.8799   0.16078   0.15345  -0.0759   0.2585   1.0000
  12.250   0.8720   0.16289   0.15553  -0.0775   0.2489   1.0000
  12.500   0.8768   0.16726   0.15992  -0.0784   0.2427   1.0000
  12.750   0.8810   0.17077   0.16347  -0.0792   0.2342   1.0000
  13.000   0.8885   0.17571   0.16844  -0.0800   0.2298   1.0000
  13.250   0.8857   0.17812   0.17084  -0.0818   0.2221   1.0000
  13.500   0.9027   0.18452   0.17732  -0.0816   0.2166   1.0000
  13.750   0.8939   0.18561   0.17837  -0.0844   0.2097   1.0000
  14.000   0.9087   0.19144   0.18426  -0.0842   0.2023   1.0000
  14.250   0.9049   0.19302   0.18583  -0.0867   0.1949   1.0000
  14.500   0.9279   0.20129   0.19423  -0.0857   0.1892   1.0000
  14.750   0.9160   0.20082   0.19367  -0.0897   0.1852   1.0000
  15.000   0.9251   0.20492   0.19785  -0.0905   0.1785   1.0000
  15.250   0.9351   0.21044   0.20340  -0.0914   0.1746   1.0000
  15.500   0.9335   0.21170   0.20464  -0.0945   0.1682   1.0000
  15.750   0.9526   0.21966   0.21269  -0.0935   0.1615   1.0000
  16.000   0.9467   0.21933   0.21231  -0.0977   0.1577   1.0000
  16.250   0.9549   0.22313   0.21614  -0.0990   0.1518   1.0000
  16.500   0.9719   0.23145   0.22454  -0.0985   0.1480   1.0000
  16.750   0.9670   0.23057   0.22360  -0.1031   0.1446   1.0000
  17.000   0.9763   0.23449   0.22757  -0.1042   0.1375   1.0000
  17.250   0.9873   0.24067   0.23377  -0.1050   0.1340   1.0000
  17.500   0.9878   0.24128   0.23436  -0.1089   0.1300   1.0000
  17.750   0.9964   0.24509   0.23821  -0.1104   0.1250   1.0000
  18.000   1.0142   0.25504   0.24826  -0.1093   0.1211   1.0000
  18.250   1.0114   0.25310   0.24626  -0.1144   0.1190   1.0000
  18.500   1.0177   0.25568   0.24886  -0.1170   0.1134   1.0000
  18.750   1.0402   0.26919   0.26247  -0.1142   0.1081   1.0000
  19.000   1.0375   0.26626   0.25948  -0.1193   0.1073   1.0000
  19.250   1.0408   0.26679   0.25999  -0.1234   0.1043   1.0000
  19.500   1.0486   0.27007   0.26329  -0.1255   0.1001   1.0000
  19.750   1.0699   0.28468   0.27800  -0.1226   0.0951   1.0000
  20.000   1.0684   0.28100   0.27425  -0.1279   0.0944   1.0000
   0.000   0.1481   0.01495   0.00555  -0.0260   1.0000   1.0000
  -0.250   0.1252   0.01477   0.00569  -0.0266   1.0000   1.0000
  -0.500   0.1015   0.01464   0.00612  -0.0275   1.0000   1.0000
  -0.750   0.0753   0.01853   0.00761  -0.0298   1.0000   0.1765
  -1.000   0.0489   0.01978   0.00875  -0.0306   1.0000   0.1417
  -1.250   0.0215   0.02102   0.01006  -0.0315   1.0000   0.1284
  -1.500  -0.0047   0.02244   0.01157  -0.0327   1.0000   0.1198
  -1.750  -0.0316   0.02379   0.01316  -0.0337   1.0000   0.1142
  -2.000  -0.0594   0.02551   0.01518  -0.0347   1.0000   0.1162
  -2.250  -0.0871   0.02761   0.01752  -0.0354   1.0000   0.1206
  -2.500  -0.1180   0.02960   0.02011  -0.0360   1.0000   0.1312
  -2.750  -0.1492   0.03202   0.02307  -0.0362   1.0000   0.1446
  -3.000  -0.1809   0.03497   0.02645  -0.0360   1.0000   0.1668
  -3.250  -0.2793   0.04315   0.03750   0.0430   1.0000   0.8283
  -3.500  -0.2351   0.04291   0.03703   0.0371   1.0000   0.8872
  -3.750  -0.1896   0.04211   0.03601   0.0283   1.0000   0.9442
  -4.000  -0.1390   0.04039   0.03410   0.0158   1.0000   0.9883
  -4.250  -0.1304   0.04131   0.03491   0.0121   1.0000   1.0000
  -4.500  -0.1439   0.04379   0.03734   0.0138   1.0000   1.0000
  -4.750  -0.4293   0.06431   0.05847   0.0092   1.0000   0.3847
  -5.000  -0.4374   0.06728   0.06136   0.0044   1.0000   0.3405
  -5.250  -0.4455   0.07042   0.06443   0.0028   1.0000   0.3041
  -5.500  -0.4553   0.07374   0.06768   0.0017   1.0000   0.2759
  -5.750  -0.4671   0.07730   0.07118  -0.0009   1.0000   0.2528
  -6.000  -0.4749   0.08060   0.07443   0.0024   1.0000   0.2323
  -6.250  -0.4840   0.08401   0.07780   0.0037   1.0000   0.2146
  -6.500  -0.4926   0.08755   0.08129   0.0051   1.0000   0.2003
  -6.750  -0.5004   0.09119   0.08486   0.0067   1.0000   0.1886
  -7.000  -0.5110   0.09535   0.08897   0.0059   1.0000   0.1780
  -7.250  -0.5255   0.10049   0.09410   0.0014   1.0000   0.1653
  -7.500  -0.5186   0.10168   0.09520   0.0115   1.0000   0.1612
  -7.750  -0.5381   0.10763   0.10114   0.0070   1.0000   0.1507
  -8.000  -0.5281   0.10861   0.10200   0.0137   1.0000   0.1481
  -8.250  -0.5312   0.11149   0.10482   0.0152   1.0000   0.1410
  -8.500  -0.5468   0.11728   0.11059   0.0136   1.0000   0.1360
  -8.750  -0.5396   0.11845   0.11166   0.0178   1.0000   0.1329
  -9.000  -0.5436   0.12150   0.11467   0.0192   1.0000   0.1273
  -9.250  -0.5653   0.12889   0.12207   0.0163   1.0000   0.1220
  -9.500  -0.5577   0.12965   0.12273   0.0205   1.0000   0.1206
  -9.750  -0.5566   0.13169   0.12471   0.0231   1.0000   0.1168
 -10.000  -0.5630   0.13516   0.12815   0.0240   1.0000   0.1122
 -10.250  -0.5858   0.14355   0.13656   0.0212   1.0000   0.1077
 -10.500  -0.5798   0.14421   0.13714   0.0249   1.0000   0.1069
 -10.750  -0.5777   0.14568   0.13855   0.0278   1.0000   0.1045
 -11.000  -0.5814   0.14854   0.14138   0.0294   1.0000   0.1009
 -11.250  -0.5891   0.15231   0.14517   0.0301   1.0000   0.0973
 -11.500  -0.6135   0.16212   0.15500   0.0275   1.0000   0.0935
 -11.750  -0.6093   0.16265   0.15547   0.0307   1.0000   0.0930
 -12.000  -0.6074   0.16354   0.15631   0.0337   1.0000   0.0918
 -12.250  -0.6100   0.16570   0.15843   0.0358   1.0000   0.0893
 -12.500  -0.6156   0.16876   0.16147   0.0373   1.0000   0.0864
 -12.750  -0.6232   0.17237   0.16507   0.0384   1.0000   0.0836
 -13.000  -0.6379   0.17885   0.17156   0.0378   1.0000   0.0805
 -13.250  -0.6517   0.18618   0.17887   0.0379   1.0000   0.0792
 -13.500  -0.6504   0.18640   0.17904   0.0408   1.0000   0.0788
 -13.750  -0.6515   0.18715   0.17975   0.0436   1.0000   0.0778
 -14.000  -0.6560   0.18913   0.18170   0.0459   1.0000   0.0759
 -14.250  -0.6626   0.19196   0.18452   0.0476   1.0000   0.0737
 -14.500  -0.6700   0.19515   0.18770   0.0492   1.0000   0.0716
 -14.750  -0.6782   0.19866   0.19124   0.0505   1.0000   0.0695
 -15.000  -0.6881   0.20313   0.19572   0.0512   1.0000   0.0675
 -15.250  -0.7129   0.21740   0.21001   0.0494   1.0000   0.0654
 -15.500  -0.7131   0.21693   0.20950   0.0523   1.0000   0.0652
 -15.750  -0.7147   0.21650   0.20903   0.0552   1.0000   0.0648
 -16.000  -0.7187   0.21684   0.20934   0.0581   1.0000   0.0641
 -16.250  -0.7250   0.21841   0.21090   0.0606   1.0000   0.0627
 -16.500  -0.7326   0.22097   0.21344   0.0628   1.0000   0.0609
 -16.750  -0.7407   0.22391   0.21638   0.0646   1.0000   0.0591
 -17.000  -0.7492   0.22706   0.21953   0.0664   1.0000   0.0573
 -17.250  -0.7578   0.23044   0.22290   0.0680   1.0000   0.0557
 -17.500  -0.7670   0.23435   0.22682   0.0693   1.0000   0.0542
 -17.750  -0.7782   0.24056   0.23309   0.0698   1.0000   0.0528
 -18.000  -0.7976   0.25556   0.24810   0.0689   1.0000   0.0517
 -18.250  -0.8012   0.25488   0.24740   0.0718   1.0000   0.0516
 -18.500  -0.8057   0.25442   0.24691   0.0748   1.0000   0.0514
 -18.750  -0.8113   0.25436   0.24684   0.0777   1.0000   0.0511
 -19.000  -0.8181   0.25501   0.24748   0.0806   1.0000   0.0507
 -19.250  -0.8259   0.25650   0.24896   0.0833   1.0000   0.0500
 -19.500  -0.8342   0.25870   0.25116   0.0857   1.0000   0.0491
 -19.750  -0.8428   0.26132   0.25378   0.0880   1.0000   0.0481
 -20.000  -0.8514   0.26413   0.25659   0.0902   1.0000   0.0471
