  
       XFOIL         Version 6.99
  
 Calculated polar for: I.S.A. 960                                      
  
 1 1 Reynolds number fixed          Mach number fixed         
  
 xtrf =   1.000 (top)        1.000 (bottom)  
 Mach =   0.000     Re =     0.050 e 6     Ncrit =   9.000
  
   alpha    CL        CD       CDp       CM     Top_Xtr  Bot_Xtr
  ------ -------- --------- --------- -------- -------- --------
   0.000   0.4615   0.02721   0.01737  -0.0919   0.8566   1.0000
   0.250   0.5020   0.02702   0.01705  -0.0933   0.8410   1.0000
   0.500   0.5411   0.02669   0.01661  -0.0941   0.8250   1.0000
   0.750   0.5788   0.02626   0.01608  -0.0945   0.8089   1.0000
   1.000   0.6136   0.02587   0.01564  -0.0944   0.7934   1.0000
   1.250   0.6448   0.02567   0.01538  -0.0940   0.7787   1.0000
   1.500   0.6743   0.02557   0.01525  -0.0935   0.7642   1.0000
   1.750   0.7046   0.02536   0.01501  -0.0929   0.7492   1.0000
   2.000   0.7350   0.02508   0.01473  -0.0921   0.7336   1.0000
   2.250   0.7647   0.02486   0.01448  -0.0913   0.7176   1.0000
   2.500   0.7905   0.02489   0.01451  -0.0902   0.7002   1.0000
   2.750   0.8155   0.02498   0.01464  -0.0890   0.6819   1.0000
   3.000   0.8410   0.02503   0.01472  -0.0879   0.6630   1.0000
   3.250   0.8674   0.02501   0.01471  -0.0868   0.6438   1.0000
   3.500   0.8933   0.02500   0.01470  -0.0856   0.6235   1.0000
   3.750   0.9167   0.02512   0.01488  -0.0842   0.6003   1.0000
   4.000   0.9427   0.02514   0.01488  -0.0831   0.5776   1.0000
   4.250   0.9678   0.02529   0.01498  -0.0819   0.5532   1.0000
   4.500   0.9918   0.02556   0.01520  -0.0806   0.5271   1.0000
   4.750   1.0168   0.02590   0.01542  -0.0795   0.5025   1.0000
   5.000   1.0400   0.02654   0.01603  -0.0786   0.4792   1.0000
   5.250   1.0654   0.02716   0.01654  -0.0778   0.4590   1.0000
   5.500   1.0859   0.02794   0.01738  -0.0766   0.4364   1.0000
   5.750   1.1088   0.02870   0.01810  -0.0756   0.4167   1.0000
   6.000   1.1328   0.02950   0.01881  -0.0748   0.3981   1.0000
   6.250   1.1536   0.03056   0.01994  -0.0738   0.3788   1.0000
   6.500   1.1759   0.03169   0.02112  -0.0729   0.3607   1.0000
   6.750   1.1993   0.03299   0.02243  -0.0722   0.3450   1.0000
   7.000   1.2233   0.03447   0.02396  -0.0718   0.3323   1.0000
   7.250   1.2499   0.03592   0.02538  -0.0717   0.3225   1.0000
   7.500   1.2695   0.03773   0.02751  -0.0709   0.3139   1.0000
   7.750   1.2956   0.03941   0.02926  -0.0709   0.3078   1.0000
   8.000   1.3104   0.04175   0.03202  -0.0698   0.3030   1.0000
   8.250   1.3281   0.04403   0.03461  -0.0690   0.2992   1.0000
   8.500   1.3480   0.04629   0.03715  -0.0685   0.2960   1.0000
   8.750   1.3612   0.04893   0.04011  -0.0673   0.2926   1.0000
   9.000   1.3582   0.05235   0.04402  -0.0648   0.2889   1.0000
   9.250   1.3844   0.05299   0.04468  -0.0642   0.2775   1.0000
   9.500   1.3999   0.05341   0.04517  -0.0625   0.2619   1.0000
   9.750   0.8620   0.13462   0.12599  -0.0914   0.4468   1.0000
  10.000   0.8529   0.13878   0.13018  -0.0925   0.4522   1.0000
  10.250   0.8552   0.14241   0.13386  -0.0932   0.4515   1.0000
  10.500   0.8620   0.14591   0.13743  -0.0939   0.4485   1.0000
  10.750   0.8851   0.15050   0.14216  -0.0947   0.4444   1.0000
  11.000   0.8711   0.15263   0.14428  -0.0949   0.4382   1.0000
  11.250   0.8879   0.15634   0.14811  -0.0953   0.4305   1.0000
  11.500   0.8839   0.15890   0.15070  -0.0956   0.4217   1.0000
  11.750   0.9010   0.16288   0.15484  -0.0959   0.4115   1.0000
  12.000   0.9096   0.16585   0.15791  -0.0961   0.4003   1.0000
  12.250   0.9054   0.16855   0.16065  -0.0968   0.3919   1.0000
  12.500   0.9205   0.17278   0.16500  -0.0971   0.3813   1.0000
  12.750   0.9427   0.17793   0.17033  -0.0972   0.3680   1.0000
  13.000   0.9292   0.17882   0.17121  -0.0982   0.3574   1.0000
  13.250   0.9325   0.18242   0.17488  -0.0992   0.3480   1.0000
  13.500   0.9413   0.18621   0.17877  -0.0997   0.3348   1.0000
  13.750   0.9508   0.19024   0.18293  -0.1001   0.3212   1.0000
  14.000   0.9537   0.19311   0.18586  -0.1009   0.3041   1.0000
  14.250   0.9634   0.19602   0.18886  -0.1002   0.2743   1.0000
  14.500   0.9789   0.20079   0.19373  -0.0992   0.2474   1.0000
  14.750   0.9889   0.20598   0.19895  -0.0996   0.2327   1.0000
  15.000   0.9797   0.20833   0.20126  -0.1031   0.2285   1.0000
  15.250   1.0078   0.21722   0.21026  -0.1017   0.2180   1.0000
  15.500   1.0030   0.22004   0.21304  -0.1049   0.2174   1.0000
  15.750   0.9969   0.22182   0.21478  -0.1085   0.2150   1.0000
  16.000   1.0032   0.22523   0.21821  -0.1101   0.2070   1.0000
  16.250   1.0133   0.23036   0.22336  -0.1112   0.2013   1.0000
  16.500   1.0173   0.23262   0.22562  -0.1133   0.1919   1.0000
  16.750   1.0279   0.23782   0.23086  -0.1143   0.1871   1.0000
  17.000   1.0310   0.23969   0.23272  -0.1167   0.1784   1.0000
  17.250   1.0389   0.24379   0.23683  -0.1183   0.1731   1.0000
  17.500   1.0570   0.24963   0.24272  -0.1176   0.1630   1.0000
  17.750   1.0510   0.24956   0.24260  -0.1225   0.1577   1.0000
  18.000   1.0694   0.25591   0.24901  -0.1216   0.1516   1.0000
  18.250   1.0659   0.25650   0.24955  -0.1263   0.1475   1.0000
  18.500   1.0767   0.26042   0.25351  -0.1273   0.1423   1.0000
  18.750   1.0865   0.26529   0.25838  -0.1287   0.1399   1.0000
  19.000   1.0877   0.26688   0.25995  -0.1326   0.1358   1.0000
  19.250   1.0984   0.27081   0.26392  -0.1336   0.1310   1.0000
  19.500   1.1110   0.27696   0.27011  -0.1342   0.1286   1.0000
  19.750   1.1109   0.27759   0.27071  -0.1387   0.1260   1.0000
  20.000   1.1176   0.28065   0.27378  -0.1413   0.1227   1.0000
   0.000   0.4615   0.02721   0.01737  -0.0919   0.8566   1.0000
  -0.250   0.4192   0.02726   0.01761  -0.0900   0.8720   1.0000
  -0.500   0.3755   0.02723   0.01782  -0.0876   0.8876   1.0000
  -0.750   0.3275   0.02717   0.01814  -0.0845   0.9044   1.0000
  -1.000   0.2769   0.02725   0.01887  -0.0812   0.9228   0.6900
  -1.250   0.2355   0.02948   0.01933  -0.0797   0.9347   0.4099
  -1.500   0.1853   0.03019   0.01985  -0.0757   0.9486   0.3632
  -1.750   0.1328   0.03076   0.02044  -0.0712   0.9626   0.3307
  -2.000   0.0747   0.03125   0.02127  -0.0655   0.9777   0.3100
  -2.250  -0.0068   0.03220   0.02254  -0.0555   0.9996   0.2855
  -2.500  -0.0324   0.03273   0.02330  -0.0548   1.0000   0.2665
  -2.750  -0.0539   0.03325   0.02379  -0.0548   1.0000   0.2374
  -3.000  -0.0821   0.03444   0.02543  -0.0539   1.0000   0.2141
  -3.250  -0.1081   0.03584   0.02704  -0.0533   1.0000   0.1947
  -3.500  -0.1399   0.03825   0.02999  -0.0516   1.0000   0.1863
  -3.750  -0.1674   0.04038   0.03243  -0.0504   1.0000   0.1786
  -4.000  -0.2008   0.04369   0.03630  -0.0476   1.0000   0.1793
  -4.250  -0.2455   0.05031   0.04363  -0.0416   1.0000   0.2225
  -4.500  -0.3661   0.06126   0.05625  -0.0022   1.0000   0.4119
  -4.750  -0.3688   0.06379   0.05869  -0.0064   1.0000   0.3789
  -5.000  -0.3731   0.06624   0.06110  -0.0089   1.0000   0.3481
  -5.250  -0.3775   0.06864   0.06348  -0.0097   1.0000   0.3198
  -5.500  -0.3809   0.07143   0.06620  -0.0131   1.0000   0.3013
  -5.750  -0.3841   0.07440   0.06911  -0.0157   1.0000   0.2850
  -6.000  -0.3870   0.07683   0.07153  -0.0159   1.0000   0.2700
  -6.250  -0.3861   0.07883   0.07351  -0.0143   1.0000   0.2567
  -6.500  -0.3817   0.08116   0.07579  -0.0138   1.0000   0.2477
  -6.750  -0.3853   0.08410   0.07869  -0.0173   1.0000   0.2397
  -7.000  -0.3736   0.08577   0.08027  -0.0160   1.0000   0.2331
  -7.250  -0.3755   0.08845   0.08289  -0.0189   1.0000   0.2247
  -7.500  -0.3668   0.09071   0.08503  -0.0195   1.0000   0.2202
  -7.750  -0.3549   0.09197   0.08617  -0.0200   1.0000   0.2128
  -8.000  -0.3648   0.09621   0.09035  -0.0232   1.0000   0.2060
  -8.250  -0.3426   0.09639   0.09033  -0.0226   1.0000   0.2020
  -8.500  -0.3704   0.10270   0.09668  -0.0265   1.0000   0.1913
  -8.750  -0.3442   0.10223   0.09599  -0.0255   1.0000   0.1898
  -9.000  -0.3298   0.10300   0.09659  -0.0255   1.0000   0.1846
  -9.250  -0.3456   0.10743   0.10101  -0.0269   1.0000   0.1776
  -9.500  -0.3461   0.11077   0.10425  -0.0267   1.0000   0.1750
  -9.750  -0.3342   0.11140   0.10474  -0.0251   1.0000   0.1707
 -10.000  -0.3399   0.11444   0.10773  -0.0250   1.0000   0.1650
 -10.250  -0.3641   0.12160   0.11492  -0.0267   1.0000   0.1608
 -10.500  -0.3491   0.12126   0.11442  -0.0240   1.0000   0.1588
 -10.750  -0.3475   0.12313   0.11622  -0.0225   1.0000   0.1540
 -11.000  -0.3593   0.12721   0.12030  -0.0228   1.0000   0.1484
 -11.250  -0.3723   0.13277   0.12582  -0.0230   1.0000   0.1455
 -11.500  -0.3633   0.13295   0.12591  -0.0204   1.0000   0.1430
 -11.750  -0.3659   0.13536   0.12827  -0.0192   1.0000   0.1381
 -12.000  -0.3774   0.13953   0.13242  -0.0192   1.0000   0.1337
 -12.250  -0.3998   0.14766   0.14056  -0.0203   1.0000   0.1311
 -12.500  -0.3905   0.14725   0.14005  -0.0175   1.0000   0.1301
 -12.750  -0.3881   0.14830   0.14105  -0.0154   1.0000   0.1274
 -13.000  -0.3928   0.15102   0.14373  -0.0141   1.0000   0.1237
 -13.250  -0.4016   0.15464   0.14733  -0.0135   1.0000   0.1203
 -13.500  -0.4335   0.16597   0.15871  -0.0156   1.0000   0.1169
 -13.750  -0.4249   0.16503   0.15770  -0.0127   1.0000   0.1164
 -14.000  -0.4207   0.16491   0.15751  -0.0102   1.0000   0.1149
 -14.250  -0.4238   0.16683   0.15940  -0.0084   1.0000   0.1117
 -14.500  -0.4311   0.16991   0.16245  -0.0073   1.0000   0.1081
 -14.750  -0.4448   0.17512   0.16767  -0.0073   1.0000   0.1045
 -15.000  -0.4597   0.18215   0.17467  -0.0070   1.0000   0.1028
 -15.250  -0.4563   0.18142   0.17388  -0.0043   1.0000   0.1019
 -15.500  -0.4591   0.18266   0.17509  -0.0021   1.0000   0.0996
 -15.750  -0.4657   0.18533   0.17773  -0.0005   1.0000   0.0969
 -16.000  -0.4738   0.18849   0.18088   0.0008   1.0000   0.0943
 -16.250  -0.4839   0.19241   0.18479   0.0017   1.0000   0.0919
 -16.500  -0.5079   0.20379   0.19624   0.0007   1.0000   0.0895
 -16.750  -0.5103   0.20511   0.19748   0.0029   1.0000   0.0891
 -17.000  -0.5101   0.20416   0.19648   0.0056   1.0000   0.0884
 -17.250  -0.5140   0.20485   0.19714   0.0082   1.0000   0.0870
 -17.500  -0.5209   0.20710   0.19938   0.0102   1.0000   0.0849
 -17.750  -0.5291   0.20995   0.20221   0.0119   1.0000   0.0827
 -18.000  -0.5379   0.21307   0.20532   0.0134   1.0000   0.0806
 -18.250  -0.5476   0.21673   0.20897   0.0146   1.0000   0.0785
 -18.500  -0.5614   0.22342   0.21567   0.0149   1.0000   0.0764
 -18.750  -0.5773   0.23311   0.22534   0.0153   1.0000   0.0754
 -19.000  -0.5779   0.23077   0.22299   0.0184   1.0000   0.0750
 -19.250  -0.5820   0.23011   0.22229   0.0214   1.0000   0.0741
 -19.500  -0.5892   0.23163   0.22380   0.0239   1.0000   0.0724
 -19.750  -0.5976   0.23420   0.22635   0.0259   1.0000   0.0706
 -20.000  -0.6064   0.23707   0.22921   0.0278   1.0000   0.0689
