  
       XFOIL         Version 6.99
  
 Calculated polar for: S3025 9.38%                                     
  
 1 1 Reynolds number fixed          Mach number fixed         
  
 xtrf =   1.000 (top)        1.000 (bottom)  
 Mach =   0.000     Re =     0.050 e 6     Ncrit =   9.000
  
   alpha    CL        CD       CDp       CM     Top_Xtr  Bot_Xtr
  ------ -------- --------- --------- -------- -------- --------
   0.000   0.1078   0.02584   0.01659  -0.0517   0.9668   1.0000
   0.250   0.1485   0.02681   0.01723  -0.0553   0.9546   1.0000
   0.500   0.1896   0.02776   0.01787  -0.0588   0.9425   1.0000
   0.750   0.2303   0.02868   0.01855  -0.0622   0.9302   1.0000
   1.000   0.2647   0.02948   0.01917  -0.0644   0.9171   1.0000
   1.250   0.2982   0.03029   0.01981  -0.0664   0.9039   1.0000
   1.500   0.3317   0.03109   0.02049  -0.0683   0.8905   1.0000
   1.750   0.3644   0.03190   0.02120  -0.0699   0.8770   1.0000
   2.000   0.3969   0.03270   0.02192  -0.0715   0.8634   1.0000
   2.250   0.4295   0.03349   0.02266  -0.0729   0.8495   1.0000
   2.500   0.4615   0.03427   0.02340  -0.0742   0.8354   1.0000
   2.750   0.4936   0.03504   0.02416  -0.0754   0.8210   1.0000
   3.000   0.5252   0.03578   0.02489  -0.0764   0.8065   1.0000
   3.250   0.5569   0.03648   0.02562  -0.0772   0.7915   1.0000
   3.500   0.5879   0.03718   0.02635  -0.0779   0.7766   1.0000
   3.750   0.6195   0.03781   0.02706  -0.0785   0.7613   1.0000
   4.000   0.6517   0.03836   0.02768  -0.0790   0.7459   1.0000
   4.250   0.6852   0.03881   0.02821  -0.0795   0.7304   1.0000
   4.500   0.7207   0.03909   0.02864  -0.0800   0.7149   1.0000
   4.750   0.7564   0.03923   0.02890  -0.0802   0.6993   1.0000
   5.000   0.7924   0.03919   0.02899  -0.0801   0.6837   1.0000
   5.250   0.8295   0.03895   0.02890  -0.0798   0.6682   1.0000
   5.500   0.8530   0.03942   0.02954  -0.0784   0.6502   1.0000
   5.750   0.8749   0.03994   0.03020  -0.0769   0.6314   1.0000
   6.000   0.9095   0.03952   0.02995  -0.0759   0.6139   1.0000
   6.250   0.9500   0.03850   0.02915  -0.0749   0.5966   1.0000
   6.500   0.9840   0.03787   0.02869  -0.0736   0.5777   1.0000
   6.750   1.0066   0.03806   0.02904  -0.0716   0.5565   1.0000
   7.000   1.0540   0.03619   0.02734  -0.0707   0.5364   1.0000
   7.250   1.0713   0.03673   0.02805  -0.0684   0.5129   1.0000
   7.500   1.1038   0.03601   0.02744  -0.0668   0.4890   1.0000
   7.750   1.1385   0.03512   0.02661  -0.0652   0.4632   1.0000
   8.000   1.1634   0.03507   0.02663  -0.0633   0.4361   1.0000
   8.250   1.1853   0.03535   0.02697  -0.0612   0.4082   1.0000
   8.500   1.2068   0.03578   0.02741  -0.0591   0.3797   1.0000
   8.750   1.2277   0.03632   0.02796  -0.0570   0.3504   1.0000
   9.000   1.2474   0.03709   0.02865  -0.0549   0.3207   1.0000
   9.250   1.2628   0.03819   0.02969  -0.0525   0.2910   1.0000
   9.500   1.2740   0.03955   0.03104  -0.0498   0.2615   1.0000
   9.750   1.2803   0.04094   0.03241  -0.0466   0.2313   1.0000
  10.000   1.2800   0.04208   0.03344  -0.0429   0.2010   1.0000
  10.250   1.2756   0.04346   0.03468  -0.0391   0.1734   1.0000
  10.500   1.2743   0.04566   0.03676  -0.0358   0.1482   1.0000
  10.750   1.2823   0.04858   0.03936  -0.0336   0.1250   1.0000
  11.000   1.2872   0.05171   0.04260  -0.0313   0.1113   1.0000
  11.250   1.2844   0.05472   0.04598  -0.0283   0.1034   1.0000
  11.500   1.2916   0.05851   0.04994  -0.0268   0.0971   1.0000
  11.750   1.2826   0.06232   0.05417  -0.0241   0.0945   1.0000
  12.000   1.2729   0.06625   0.05844  -0.0220   0.0927   1.0000
  12.250   1.2599   0.07043   0.06291  -0.0204   0.0917   1.0000
  12.500   1.2404   0.07506   0.06784  -0.0194   0.0914   1.0000
  12.750   1.2123   0.08057   0.07364  -0.0197   0.0922   1.0000
  13.000   1.1792   0.08724   0.08057  -0.0217   0.0938   1.0000
  13.250   1.1471   0.09481   0.08832  -0.0250   0.0956   1.0000
  13.500   1.1177   0.10316   0.09679  -0.0292   0.0972   1.0000
  13.750   1.0917   0.11206   0.10575  -0.0338   0.0986   1.0000
  13.750   1.0774   0.11463   0.10836  -0.0364   0.1009   1.0000
  13.850   1.0752   0.11710   0.11083  -0.0372   0.1003   1.0000
  13.950   1.0732   0.11958   0.11332  -0.0379   0.0997   1.0000
  15.250   0.7095   0.17670   0.17046  -0.0733   0.2567   1.0000
  15.500   0.7141   0.18031   0.17412  -0.0741   0.2451   1.0000
  15.750   0.7227   0.18454   0.17840  -0.0746   0.2333   1.0000
  16.000   0.7369   0.18993   0.18386  -0.0747   0.2206   1.0000
  16.250   0.7223   0.19011   0.18403  -0.0772   0.2160   1.0000
  16.500   0.7412   0.19652   0.19051  -0.0770   0.2065   1.0000
  16.750   0.7286   0.19692   0.19090  -0.0796   0.2022   1.0000
  17.000   0.7415   0.20174   0.19579  -0.0798   0.1940   1.0000
  17.250   0.7380   0.20434   0.19838  -0.0818   0.1907   1.0000
  17.500   0.7415   0.20728   0.20136  -0.0829   0.1821   1.0000
  17.750   0.7497   0.21221   0.20632  -0.0838   0.1782   1.0000
  18.000   0.7447   0.21382   0.20795  -0.0860   0.1734   1.0000
  18.250   0.7530   0.21792   0.21212  -0.0868   0.1677   1.0000
  18.500   0.7630   0.22359   0.21782  -0.0875   0.1650   1.0000
  18.750   0.7556   0.22450   0.21873  -0.0901   0.1612   1.0000
  19.000   0.7623   0.22832   0.22260  -0.0910   0.1545   1.0000
  19.250   0.7710   0.23362   0.22792  -0.0918   0.1512   1.0000
  19.500   0.7662   0.23503   0.22934  -0.0943   0.1471   1.0000
  19.750   0.7719   0.23869   0.23305  -0.0954   0.1418   1.0000
  20.000   0.7894   0.24685   0.24126  -0.0951   0.1385   1.0000
   0.000   0.1078   0.02584   0.01659  -0.0517   0.9667   1.0000
  -0.250   0.0662   0.02484   0.01601  -0.0480   0.9788   1.0000
  -0.500   0.0222   0.02379   0.01551  -0.0437   0.9906   1.0000
  -0.750  -0.0193   0.02279   0.01520  -0.0400   1.0000   1.0000
  -1.000  -0.0383   0.02524   0.01599  -0.0429   1.0000   0.3591
  -1.250  -0.0698   0.02740   0.01708  -0.0424   1.0000   0.1755
  -1.500  -0.0934   0.02828   0.01792  -0.0429   1.0000   0.1428
  -1.750  -0.1161   0.02931   0.01911  -0.0437   1.0000   0.1293
  -2.000  -0.1393   0.03044   0.02048  -0.0441   1.0000   0.1193
  -2.250  -0.1622   0.03171   0.02203  -0.0445   1.0000   0.1137
  -2.500  -0.1867   0.03350   0.02421  -0.0448   1.0000   0.1129
  -2.750  -0.2139   0.03584   0.02724  -0.0446   1.0000   0.1162
  -3.000  -0.2405   0.03861   0.03057  -0.0439   1.0000   0.1193
  -3.250  -0.2641   0.04142   0.03371  -0.0434   1.0000   0.1227
  -3.500  -0.2928   0.04551   0.03848  -0.0413   1.0000   0.1367
  -3.500  -0.2928   0.04551   0.03848  -0.0413   1.0000   0.1367
  -3.600  -0.2994   0.04671   0.03964  -0.0417   1.0000   0.1398
  -4.000  -0.4152   0.06729   0.06249   0.0089   1.0000   0.4234
  -4.100  -0.4124   0.06795   0.06311   0.0075   1.0000   0.4097
  -4.200  -0.4091   0.06863   0.06375   0.0061   1.0000   0.3969
  -4.500  -0.4034   0.07100   0.06602   0.0021   1.0000   0.3689
  -4.750  -0.4006   0.07304   0.06798  -0.0013   1.0000   0.3506
  -5.000  -0.3981   0.07525   0.07010  -0.0048   1.0000   0.3341
  -5.000  -0.3981   0.07525   0.07010  -0.0048   1.0000   0.3341
  -5.100  -0.3913   0.07587   0.07068  -0.0052   1.0000   0.3283
  -5.200  -0.3882   0.07641   0.07118  -0.0062   1.0000   0.3216
  -5.500  -0.3827   0.07894   0.07359  -0.0098   1.0000   0.3051
  -5.750  -0.3710   0.08061   0.07513  -0.0118   1.0000   0.2926
  -6.000  -0.3642   0.08271   0.07710  -0.0139   1.0000   0.2820
  -6.250  -0.3708   0.08597   0.08028  -0.0169   1.0000   0.2710
  -6.500  -0.3710   0.08843   0.08268  -0.0192   1.0000   0.2582
  -6.750  -0.3463   0.08900   0.08299  -0.0195   1.0000   0.2516
  -7.000  -0.3593   0.09299   0.08696  -0.0214   1.0000   0.2413
  -7.250  -0.3376   0.09320   0.08697  -0.0226   1.0000   0.2340
  -7.500  -0.3465   0.09700   0.09070  -0.0240   1.0000   0.2259
  -7.750  -0.3370   0.09820   0.09176  -0.0245   1.0000   0.2175
  -8.000  -0.3425   0.10174   0.09522  -0.0252   1.0000   0.2106
  -8.250  -0.3406   0.10369   0.09708  -0.0254   1.0000   0.2015
  -8.500  -0.3449   0.10710   0.10041  -0.0257   1.0000   0.1957
  -8.750  -0.3436   0.10906   0.10228  -0.0254   1.0000   0.1873
  -9.000  -0.3538   0.11330   0.10647  -0.0258   1.0000   0.1818
  -9.250  -0.3471   0.11453   0.10759  -0.0246   1.0000   0.1748
  -9.500  -0.3660   0.12005   0.11311  -0.0259   1.0000   0.1677
  -9.750  -0.3542   0.12041   0.11334  -0.0237   1.0000   0.1626
 -10.000  -0.3862   0.12840   0.12141  -0.0264   1.0000   0.1537
 -10.250  -0.3706   0.12789   0.12077  -0.0235   1.0000   0.1523
 -10.500  -0.3665   0.12926   0.12206  -0.0219   1.0000   0.1472
 -10.750  -0.3785   0.13332   0.12611  -0.0221   1.0000   0.1414
 -11.000  -0.3905   0.13855   0.13131  -0.0221   1.0000   0.1385
 -11.250  -0.3825   0.13883   0.13150  -0.0197   1.0000   0.1356
 -11.500  -0.3861   0.14133   0.13396  -0.0186   1.0000   0.1312
 -11.750  -0.4058   0.14758   0.14023  -0.0197   1.0000   0.1256
 -12.000  -0.4103   0.15118   0.14377  -0.0185   1.0000   0.1241
 -12.250  -0.4043   0.15140   0.14392  -0.0161   1.0000   0.1218
 -12.500  -0.4074   0.15367   0.14615  -0.0147   1.0000   0.1181
 -12.750  -0.4157   0.15716   0.14963  -0.0141   1.0000   0.1139
 -13.000  -0.4441   0.16725   0.15977  -0.0156   1.0000   0.1102
 -13.250  -0.4362   0.16647   0.15892  -0.0129   1.0000   0.1095
 -13.500  -0.4339   0.16686   0.15925  -0.0106   1.0000   0.1076
 -13.750  -0.4377   0.16915   0.16151  -0.0091   1.0000   0.1039
 -14.000  -0.4453   0.17225   0.16459  -0.0080   1.0000   0.1009
 -14.250  -0.4580   0.17711   0.16946  -0.0078   1.0000   0.0978
 -14.500  -0.4769   0.18563   0.17797  -0.0079   1.0000   0.0959
 -14.750  -0.4732   0.18485   0.17713  -0.0054   1.0000   0.0952
 -15.000  -0.4741   0.18538   0.17762  -0.0031   1.0000   0.0936
 -15.250  -0.4794   0.18754   0.17976  -0.0013   1.0000   0.0908
 -15.500  -0.4870   0.19046   0.18266   0.0001   1.0000   0.0882
 -15.750  -0.4964   0.19412   0.18631   0.0010   1.0000   0.0851
 -16.000  -0.5239   0.20751   0.19977  -0.0003   1.0000   0.0820
 -16.250  -0.5203   0.20552   0.19772   0.0024   1.0000   0.0816
 -16.500  -0.5213   0.20510   0.19726   0.0050   1.0000   0.0809
 -16.750  -0.5260   0.20622   0.19835   0.0073   1.0000   0.0792
 -17.000  -0.5328   0.20858   0.20070   0.0091   1.0000   0.0768
 -17.250  -0.5409   0.21150   0.20360   0.0107   1.0000   0.0745
 -17.500  -0.5497   0.21470   0.20680   0.0121   1.0000   0.0725
 -17.750  -0.5595   0.21854   0.21064   0.0133   1.0000   0.0707
 -18.000  -0.5759   0.22731   0.21944   0.0132   1.0000   0.0689
 -18.250  -0.5871   0.23361   0.22572   0.0144   1.0000   0.0683
 -18.500  -0.5887   0.23229   0.22435   0.0171   1.0000   0.0679
 -18.750  -0.5930   0.23220   0.22423   0.0198   1.0000   0.0674
 -19.000  -0.5991   0.23327   0.22528   0.0222   1.0000   0.0662
 -19.250  -0.6067   0.23546   0.22746   0.0242   1.0000   0.0648
 -19.500  -0.6149   0.23814   0.23017   0.0262   1.0000   0.0630
 -19.750  -0.6233   0.24096   0.23299   0.0280   1.0000   0.0614
 -20.000  -0.6319   0.24396   0.23599   0.0297   1.0000   0.0599
