  
       XFOIL         Version 6.99
  
 Calculated polar for: SA7025                                          
  
 1 1 Reynolds number fixed          Mach number fixed         
  
 xtrf =   1.000 (top)        1.000 (bottom)  
 Mach =   0.000     Re =     0.050 e 6     Ncrit =   9.000
  
   alpha    CL        CD       CDp       CM     Top_Xtr  Bot_Xtr
  ------ -------- --------- --------- -------- -------- --------
   0.000   0.1162   0.02148   0.01216  -0.0507   1.0000   1.0000
   0.250   0.1359   0.02208   0.01248  -0.0505   1.0000   1.0000
   0.500   0.1551   0.02274   0.01291  -0.0503   1.0000   1.0000
   0.750   0.1738   0.02346   0.01342  -0.0501   1.0000   1.0000
   1.000   0.1920   0.02424   0.01400  -0.0500   1.0000   1.0000
   1.250   0.2145   0.02517   0.01477  -0.0509   0.9975   1.0000
   1.500   0.2673   0.02670   0.01611  -0.0572   0.9802   1.0000
   1.750   0.3154   0.02801   0.01727  -0.0624   0.9619   1.0000
   2.000   0.3648   0.02925   0.01841  -0.0676   0.9441   1.0000
   2.250   0.4061   0.03025   0.01936  -0.0711   0.9248   1.0000
   2.500   0.4486   0.03116   0.02025  -0.0746   0.9057   1.0000
   2.750   0.4966   0.03198   0.02108  -0.0787   0.8879   1.0000
   3.000   0.5288   0.03266   0.02180  -0.0800   0.8673   1.0000
   3.250   0.5725   0.03320   0.02240  -0.0829   0.8486   1.0000
   3.500   0.6102   0.03367   0.02299  -0.0846   0.8289   1.0000
   3.750   0.6494   0.03396   0.02339  -0.0862   0.8091   1.0000
   4.000   0.7015   0.03373   0.02333  -0.0891   0.7914   1.0000
   4.250   0.7304   0.03401   0.02380  -0.0888   0.7692   1.0000
   4.500   0.7827   0.03323   0.02324  -0.0908   0.7514   1.0000
   4.750   0.8161   0.03304   0.02323  -0.0903   0.7299   1.0000
   5.000   0.8639   0.03188   0.02237  -0.0907   0.7106   1.0000
   5.250   0.8986   0.03135   0.02204  -0.0898   0.6876   1.0000
   5.500   0.9436   0.03006   0.02097  -0.0892   0.6652   1.0000
   5.750   0.9821   0.02914   0.02022  -0.0881   0.6394   1.0000
   6.000   1.0133   0.02878   0.02006  -0.0864   0.6105   1.0000
   6.250   1.0392   0.02881   0.02022  -0.0843   0.5788   1.0000
   6.500   1.0667   0.02878   0.02026  -0.0823   0.5458   1.0000
   6.750   1.0925   0.02894   0.02044  -0.0802   0.5111   1.0000
   7.000   1.1155   0.02934   0.02092  -0.0779   0.4747   1.0000
   7.250   1.1357   0.02999   0.02158  -0.0755   0.4367   1.0000
   7.500   1.1552   0.03070   0.02224  -0.0730   0.3971   1.0000
   7.750   1.1722   0.03155   0.02301  -0.0703   0.3556   1.0000
   8.000   1.1864   0.03258   0.02392  -0.0674   0.3125   1.0000
   8.250   1.1984   0.03390   0.02507  -0.0644   0.2683   1.0000
   8.500   1.2080   0.03549   0.02631  -0.0613   0.2231   1.0000
   8.750   1.2134   0.03757   0.02816  -0.0579   0.1809   1.0000
   9.000   1.2195   0.04022   0.03069  -0.0548   0.1433   1.0000
   9.250   1.2245   0.04294   0.03322  -0.0519   0.1143   1.0000
   9.500   1.2310   0.04582   0.03631  -0.0493   0.0954   1.0000
   9.750   1.2460   0.04969   0.04042  -0.0476   0.0846   1.0000
  10.000   1.2658   0.05412   0.04482  -0.0469   0.0771   1.0000
  10.250   1.2644   0.05785   0.04925  -0.0438   0.0746   1.0000
  10.500   1.2609   0.06178   0.05368  -0.0411   0.0725   1.0000
  10.750   1.2538   0.06571   0.05801  -0.0386   0.0708   1.0000
  11.000   1.2412   0.06956   0.06219  -0.0359   0.0701   1.0000
  11.250   1.2223   0.07375   0.06670  -0.0335   0.0709   1.0000
  11.500   1.2003   0.07826   0.07148  -0.0322   0.0712   1.0000
  11.750   1.1761   0.08351   0.07697  -0.0321   0.0724   1.0000
  12.000   1.1525   0.08940   0.08306  -0.0334   0.0738   1.0000
  12.250   1.1301   0.09583   0.08963  -0.0358   0.0749   1.0000
  12.500   1.1108   0.10277   0.09667  -0.0388   0.0761   1.0000
  12.750   1.0947   0.11002   0.10397  -0.0422   0.0769   1.0000
  12.750   1.0880   0.11094   0.10496  -0.0435   0.0782   1.0000
  12.850   1.0857   0.11342   0.10745  -0.0443   0.0778   1.0000
  13.250   0.9861   0.14965   0.14338  -0.0727   0.1115   1.0000
  13.500   0.9831   0.15666   0.15035  -0.0758   0.1130   1.0000
  13.750   0.9831   0.16317   0.15683  -0.0785   0.1141   1.0000
  14.000   0.9929   0.16905   0.16277  -0.0791   0.1156   1.0000
  14.250   0.7630   0.17545   0.16965  -0.0826   0.2495   1.0000
  14.500   0.7654   0.17889   0.17313  -0.0832   0.2358   1.0000
  14.750   0.7531   0.17989   0.17413  -0.0853   0.2302   1.0000
  15.000   0.7619   0.18472   0.17899  -0.0858   0.2212   1.0000
  15.250   0.7685   0.18880   0.18310  -0.0862   0.2082   1.0000
  15.500   0.7610   0.19031   0.18462  -0.0884   0.2014   1.0000
  15.750   0.7720   0.19565   0.18999  -0.0887   0.1945   1.0000
  16.000   0.7665   0.19736   0.19170  -0.0907   0.1872   1.0000
  16.250   0.7746   0.20203   0.19639  -0.0914   0.1804   1.0000
  16.500   0.7735   0.20442   0.19880  -0.0930   0.1727   1.0000
  16.750   0.7886   0.21103   0.20544  -0.0930   0.1681   1.0000
  17.000   0.7789   0.21178   0.20618  -0.0958   0.1646   1.0000
  17.250   0.7834   0.21531   0.20974  -0.0971   0.1587   1.0000
  17.500   0.7966   0.22169   0.21616  -0.0972   0.1547   1.0000
  17.750   0.7885   0.22254   0.21700  -0.1000   0.1510   1.0000
  18.000   0.7943   0.22632   0.22081  -0.1010   0.1447   1.0000
  18.250   0.8034   0.23178   0.22629  -0.1017   0.1410   1.0000
  18.500   0.7984   0.23330   0.22782  -0.1043   0.1366   1.0000
  18.750   0.8038   0.23699   0.23160  -0.1055   0.1322   1.0000
  19.000   0.8196   0.24472   0.23936  -0.1051   0.1284   1.0000
  19.250   0.8119   0.24526   0.23989  -0.1082   0.1267   1.0000
  19.500   0.8124   0.24816   0.24281  -0.1101   0.1226   1.0000
  19.750   0.8187   0.25234   0.24703  -0.1111   0.1182   1.0000
  20.000   0.8363   0.26113   0.25586  -0.1107   0.1155   1.0000
   0.000   0.0757   0.00717  -0.00085  -0.0457   1.0000   1.0000
  -0.250   0.0582   0.00660  -0.00104  -0.0459   1.0000   1.0000
  -0.500   0.0391   0.00610  -0.00109  -0.0460   1.0000   1.0000
  -0.750   0.0178   0.00567  -0.00067  -0.0461   1.0000   1.0000
  -1.000   0.0033   0.00924  -0.00038  -0.0506   1.0000   0.1846
  -1.250   0.0052   0.02485   0.01409  -0.0547   1.0000   0.1518
  -1.500  -0.0205   0.02585   0.01518  -0.0553   1.0000   0.1277
  -1.750  -0.0460   0.02708   0.01668  -0.0561   1.0000   0.1197
  -2.000  -0.0721   0.02849   0.01841  -0.0566   1.0000   0.1152
  -2.250  -0.0983   0.03029   0.02042  -0.0567   1.0000   0.1104
  -2.500  -0.1273   0.03217   0.02290  -0.0564   1.0000   0.1080
  -2.750  -0.1563   0.03468   0.02585  -0.0558   1.0000   0.1097
  -3.000  -0.1919   0.03824   0.03029  -0.0539   1.0000   0.1209
  -3.250  -0.2238   0.04245   0.03500  -0.0519   1.0000   0.1380
  -3.250  -0.2665   0.04817   0.04190  -0.0405   1.0000   0.2271
  -3.750  -0.3869   0.06421   0.05910   0.0038   1.0000   0.4226
  -4.000  -0.3893   0.06690   0.06172  -0.0008   1.0000   0.3934
  -4.250  -0.3913   0.06924   0.06400  -0.0035   1.0000   0.3656
  -4.500  -0.3911   0.07139   0.06608  -0.0047   1.0000   0.3397
  -4.750  -0.3963   0.07457   0.06924  -0.0090   1.0000   0.3226
  -5.000  -0.3906   0.07629   0.07089  -0.0079   1.0000   0.3019
  -5.250  -0.3898   0.07867   0.07320  -0.0094   1.0000   0.2869
  -5.500  -0.3880   0.08108   0.07553  -0.0110   1.0000   0.2733
  -5.750  -0.3865   0.08357   0.07794  -0.0127   1.0000   0.2616
  -6.000  -0.3903   0.08662   0.08092  -0.0154   1.0000   0.2502
  -6.250  -0.3952   0.08987   0.08411  -0.0184   1.0000   0.2372
  -6.500  -0.3731   0.09000   0.08408  -0.0171   1.0000   0.2315
  -6.750  -0.3761   0.09302   0.08703  -0.0193   1.0000   0.2214
  -7.000  -0.3834   0.09662   0.09057  -0.0219   1.0000   0.2088
  -7.250  -0.3613   0.09665   0.09042  -0.0229   1.0000   0.2067
  -7.500  -0.3734   0.10085   0.09458  -0.0248   1.0000   0.1947
  -7.750  -0.3525   0.10071   0.09425  -0.0254   1.0000   0.1920
  -8.000  -0.3728   0.10610   0.09965  -0.0273   1.0000   0.1809
  -8.250  -0.3506   0.10550   0.09886  -0.0266   1.0000   0.1776
  -8.500  -0.3563   0.10841   0.10171  -0.0274   1.0000   0.1696
  -8.750  -0.3598   0.11182   0.10504  -0.0275   1.0000   0.1657
  -9.000  -0.3537   0.11302   0.10614  -0.0266   1.0000   0.1599
  -9.250  -0.3794   0.12002   0.11317  -0.0287   1.0000   0.1530
  -9.500  -0.3635   0.11945   0.11246  -0.0263   1.0000   0.1507
  -9.750  -0.3638   0.12146   0.11440  -0.0254   1.0000   0.1453
 -10.000  -0.3880   0.12886   0.12188  -0.0273   1.0000   0.1390
 -10.250  -0.3769   0.12858   0.12148  -0.0248   1.0000   0.1373
 -10.500  -0.3759   0.13030   0.12313  -0.0234   1.0000   0.1325
 -10.750  -0.3878   0.13452   0.12735  -0.0237   1.0000   0.1272
 -11.000  -0.3979   0.13953   0.13232  -0.0235   1.0000   0.1246
 -11.250  -0.3918   0.13989   0.13260  -0.0212   1.0000   0.1220
 -11.500  -0.3955   0.14237   0.13504  -0.0201   1.0000   0.1179
 -11.750  -0.4070   0.14671   0.13938  -0.0201   1.0000   0.1134
 -12.000  -0.4211   0.15298   0.14563  -0.0201   1.0000   0.1109
 -12.250  -0.4161   0.15300   0.14557  -0.0177   1.0000   0.1096
 -12.500  -0.4178   0.15481   0.14734  -0.0160   1.0000   0.1062
 -12.750  -0.4243   0.15783   0.15034  -0.0150   1.0000   0.1025
 -13.000  -0.4401   0.16386   0.15639  -0.0154   1.0000   0.0986
 -13.250  -0.4500   0.16902   0.16151  -0.0146   1.0000   0.0971
 -13.500  -0.4469   0.16884   0.16127  -0.0121   1.0000   0.0960
 -13.750  -0.4493   0.17033   0.16272  -0.0101   1.0000   0.0930
 -14.000  -0.4561   0.17326   0.16563  -0.0088   1.0000   0.0894
 -14.250  -0.4664   0.17737   0.16980  -0.0083   1.0000   0.0861
 -14.500  -0.4860   0.18666   0.17909  -0.0087   1.0000   0.0836
 -14.750  -0.4836   0.18583   0.17821  -0.0061   1.0000   0.0830
 -15.000  -0.4855   0.18639   0.17873  -0.0037   1.0000   0.0813
 -15.250  -0.4917   0.18873   0.18105  -0.0019   1.0000   0.0789
 -15.500  -0.4991   0.19167   0.18397  -0.0004   1.0000   0.0764
 -15.750  -0.5077   0.19500   0.18729   0.0009   1.0000   0.0741
 -16.000  -0.5191   0.19988   0.19218   0.0015   1.0000   0.0718
 -16.250  -0.5391   0.21102   0.20333   0.0012   1.0000   0.0701
 -16.500  -0.5395   0.21014   0.20241   0.0038   1.0000   0.0698
 -16.750  -0.5423   0.21002   0.20225   0.0063   1.0000   0.0692
 -17.000  -0.5475   0.21106   0.20326   0.0088   1.0000   0.0679
 -17.250  -0.5548   0.21337   0.20556   0.0108   1.0000   0.0661
 -17.500  -0.5629   0.21612   0.20830   0.0126   1.0000   0.0644
 -17.750  -0.5714   0.21915   0.21131   0.0143   1.0000   0.0625
 -18.000  -0.5803   0.22238   0.21454   0.0158   1.0000   0.0607
 -18.250  -0.5897   0.22626   0.21842   0.0171   1.0000   0.0591
 -18.500  -0.6028   0.23327   0.22551   0.0176   1.0000   0.0575
 -18.750  -0.6186   0.24376   0.23600   0.0181   1.0000   0.0567
 -19.000  -0.6214   0.24246   0.23466   0.0209   1.0000   0.0565
 -19.250  -0.6259   0.24193   0.23409   0.0236   1.0000   0.0562
 -19.500  -0.6321   0.24241   0.23455   0.0262   1.0000   0.0556
 -19.750  -0.6395   0.24392   0.23605   0.0286   1.0000   0.0545
 -20.000  -0.6477   0.24625   0.23837   0.0308   1.0000   0.0532
