  
       XFOIL         Version 6.99
  
 Calculated polar for: MH 24  9.01%                                    
  
 1 1 Reynolds number fixed          Mach number fixed         
  
 xtrf =   1.000 (top)        1.000 (bottom)  
 Mach =   0.000     Re =     0.050 e 6     Ncrit =   9.000
  
   alpha    CL        CD       CDp       CM     Top_Xtr  Bot_Xtr
  ------ -------- --------- --------- -------- -------- --------
   0.000  -0.0165   0.02027   0.00902  -0.0014   1.0000   1.0000
   0.250  -0.0037   0.02041   0.00908   0.0007   1.0000   1.0000
   0.500   0.0093   0.02059   0.00915   0.0028   1.0000   1.0000
   0.750   0.0222   0.02081   0.00930   0.0047   1.0000   1.0000
   1.000   0.0352   0.02105   0.00951   0.0067   1.0000   1.0000
   1.250   0.0481   0.02134   0.00976   0.0085   1.0000   1.0000
   1.500   0.0610   0.02168   0.01007   0.0102   1.0000   1.0000
   1.750   0.0740   0.02206   0.01045   0.0118   1.0000   1.0000
   2.000   0.0869   0.02249   0.01088   0.0133   1.0000   1.0000
   2.250   0.0998   0.02299   0.01138   0.0147   1.0000   1.0000
   2.500   0.1125   0.02354   0.01196   0.0160   1.0000   1.0000
   2.750   0.1251   0.02417   0.01263   0.0171   1.0000   1.0000
   3.000   0.1373   0.02488   0.01339   0.0181   1.0000   1.0000
   3.250   0.1491   0.02568   0.01424   0.0189   1.0000   1.0000
   3.500   0.2280   0.02783   0.01668   0.0067   0.9707   1.0000
   3.750   0.2962   0.02925   0.01838  -0.0025   0.9393   1.0000
   4.000   0.3616   0.03012   0.01965  -0.0102   0.9063   1.0000
   4.250   0.4277   0.03035   0.02028  -0.0170   0.8717   1.0000
   4.500   0.5056   0.02961   0.02007  -0.0243   0.8346   1.0000
   4.750   0.5854   0.02767   0.01885  -0.0300   0.7912   1.0000
   5.000   0.6761   0.02404   0.01597  -0.0343   0.7333   1.0000
   5.250   0.7345   0.02190   0.01404  -0.0336   0.6385   1.0000
   5.500   0.7571   0.02216   0.01382  -0.0294   0.5325   1.0000
   5.750   0.7679   0.02332   0.01439  -0.0248   0.4354   1.0000
   6.000   0.7773   0.02487   0.01536  -0.0206   0.3483   1.0000
   6.250   0.7883   0.02667   0.01661  -0.0171   0.2743   1.0000
   6.500   0.8040   0.02880   0.01842  -0.0145   0.2153   1.0000
   6.750   0.8219   0.03098   0.02041  -0.0123   0.1746   1.0000
   7.000   0.8444   0.03362   0.02308  -0.0108   0.1483   1.0000
   7.250   0.8646   0.03616   0.02548  -0.0094   0.1278   1.0000
   7.500   0.8815   0.03920   0.02924  -0.0067   0.1193   1.0000
   7.750   0.8959   0.04250   0.03286  -0.0043   0.1117   1.0000
   8.000   0.9092   0.04541   0.03580  -0.0023   0.1010   1.0000
   8.250   0.9127   0.04888   0.03993   0.0015   0.0994   1.0000
   8.500   0.9136   0.05279   0.04436   0.0052   0.0988   1.0000
   8.750   0.9116   0.05683   0.04883   0.0086   0.0991   1.0000
   9.000   0.9081   0.06106   0.05339   0.0117   0.0998   1.0000
   9.250   0.9055   0.06561   0.05817   0.0143   0.1007   1.0000
   9.500   0.8995   0.07021   0.06298   0.0167   0.1012   1.0000
   9.500   0.8995   0.07021   0.06298   0.0167   0.1012   1.0000
   9.600   0.8972   0.07204   0.06487   0.0175   0.1013   1.0000
  10.000   0.7420   0.06877   0.06247   0.0276   0.1104   1.0000
  10.250   0.7208   0.07417   0.06791   0.0275   0.1123   1.0000
  10.500   0.7116   0.07981   0.07356   0.0271   0.1140   1.0000
  10.750   0.6538   0.09111   0.08477   0.0189   0.1289   1.0000
  11.000   0.6532   0.09647   0.09013   0.0184   0.1278   1.0000
  11.000   0.6018   0.10572   0.09917   0.0080   0.1655   1.0000
  11.500   0.5421   0.12572   0.11900  -0.0074   0.2886   1.0000
  11.750   0.5323   0.12839   0.12166  -0.0081   0.2808   1.0000
  12.000   0.5439   0.13350   0.12680  -0.0083   0.2753   1.0000
  12.250   0.5317   0.13525   0.12853  -0.0091   0.2672   1.0000
  12.500   0.5407   0.13991   0.13323  -0.0095   0.2613   1.0000
  12.750   0.5338   0.14172   0.13503  -0.0102   0.2526   1.0000
  13.000   0.5340   0.14486   0.13818  -0.0107   0.2460   1.0000
  13.250   0.5415   0.14856   0.14192  -0.0108   0.2340   1.0000
  13.500   0.5527   0.15300   0.14639  -0.0107   0.2214   1.0000
  13.750   0.5322   0.15176   0.14513  -0.0122   0.2166   1.0000
  14.000   0.5548   0.15873   0.15215  -0.0120   0.2080   1.0000
  14.250   0.5349   0.15720   0.15059  -0.0138   0.2038   1.0000
  14.500   0.5610   0.16516   0.15861  -0.0134   0.1947   1.0000
  14.750   0.5408   0.16311   0.15653  -0.0155   0.1919   1.0000
  15.000   0.5440   0.16571   0.15916  -0.0163   0.1842   1.0000
  15.250   0.5484   0.16926   0.16271  -0.0173   0.1795   1.0000
  15.500   0.5481   0.17094   0.16441  -0.0184   0.1713   1.0000
  15.750   0.5524   0.17433   0.16780  -0.0194   0.1656   1.0000
  16.000   0.5544   0.17646   0.17002  -0.0205   0.1576   1.0000
  16.250   0.5644   0.18146   0.17502  -0.0210   0.1535   1.0000
  16.500   0.5580   0.18175   0.17531  -0.0232   0.1492   1.0000
  16.750   0.5663   0.18545   0.17905  -0.0238   0.1432   1.0000
  17.000   0.5741   0.19015   0.18374  -0.0247   0.1402   1.0000
  17.250   0.5687   0.19045   0.18404  -0.0269   0.1366   1.0000
  17.500   0.5739   0.19347   0.18708  -0.0280   0.1312   1.0000
  17.750   0.5878   0.19994   0.19358  -0.0282   0.1273   1.0000
  18.000   0.5812   0.19957   0.19320  -0.0307   0.1250   1.0000
  18.250   0.5839   0.20190   0.19555  -0.0322   0.1195   1.0000
  18.500   0.6010   0.20957   0.20325  -0.0319   0.1142   1.0000
  18.750   0.5943   0.20887   0.20253  -0.0345   0.1126   1.0000
  19.000   0.5953   0.21078   0.20446  -0.0364   0.1082   1.0000
  19.250   0.6023   0.21440   0.20812  -0.0373   0.1038   1.0000
  19.500   0.6176   0.22229   0.21602  -0.0374   0.1012   1.0000
  19.750   0.6122   0.22172   0.21545  -0.0400   0.1002   1.0000
  20.000   0.6120   0.22323   0.21698  -0.0421   0.0974   1.0000
   0.000  -0.0325   0.00554  -0.00456   0.0002   1.0000   1.0000
  -0.250  -0.0420   0.00542  -0.00459  -0.0021   1.0000   1.0000
  -0.500  -0.0514   0.00533  -0.00456  -0.0044   1.0000   1.0000
  -0.750  -0.0605   0.00527  -0.00450  -0.0068   1.0000   1.0000
  -1.000  -0.0695   0.00524  -0.00438  -0.0093   1.0000   1.0000
  -1.250  -0.0781   0.00524  -0.00419  -0.0119   1.0000   1.0000
  -1.500  -0.0865   0.00527  -0.00400  -0.0144   1.0000   1.0000
  -1.750  -0.0944   0.00533  -0.00375  -0.0171   1.0000   1.0000
  -2.000  -0.1017   0.00544  -0.00345  -0.0197   1.0000   1.0000
  -2.250  -0.1083   0.00559  -0.00308  -0.0224   1.0000   1.0000
  -2.500  -0.1139   0.00580  -0.00264  -0.0252   1.0000   1.0000
  -2.750  -0.1181   0.00609  -0.00211  -0.0280   1.0000   1.0000
  -3.000  -0.1203   0.00650  -0.00144  -0.0308   1.0000   1.0000
  -3.250  -0.1200   0.00707  -0.00056  -0.0336   1.0000   1.0000
  -3.500  -0.4267   0.02872   0.01754  -0.0007   1.0000   0.1020
  -3.750  -0.4527   0.03089   0.02005  -0.0020   1.0000   0.0970
  -4.000  -0.4754   0.03332   0.02276  -0.0034   1.0000   0.0923
  -4.250  -0.4964   0.03562   0.02563  -0.0054   1.0000   0.0895
  -4.500  -0.5157   0.03842   0.02889  -0.0073   1.0000   0.0907
  -4.750  -0.5334   0.04186   0.03256  -0.0091   1.0000   0.0934
  -5.000  -0.5484   0.04513   0.03675  -0.0119   1.0000   0.1033
  -5.250  -0.5614   0.04919   0.04139  -0.0142   1.0000   0.1164
  -5.250  -0.5614   0.04919   0.04139  -0.0142   1.0000   0.1164
  -5.350  -0.5684   0.05077   0.04305  -0.0149   1.0000   0.1227
  -5.450  -0.5719   0.05298   0.04550  -0.0156   1.0000   0.1327
  -5.500  -0.5733   0.05415   0.04698  -0.0157   1.0000   0.1441
  -7.000  -0.4794   0.08232   0.07617  -0.0034   1.0000   0.3849
  -7.250  -0.4772   0.08498   0.07875  -0.0067   1.0000   0.3588
  -7.250  -0.4772   0.08498   0.07875  -0.0067   1.0000   0.3588
  -7.350  -0.4875   0.08688   0.08065  -0.0075   1.0000   0.3519
  -7.450  -0.4771   0.08712   0.08082  -0.0086   1.0000   0.3445
  -7.750  -0.4761   0.09063   0.08423  -0.0113   1.0000   0.3220
  -8.000  -0.4733   0.09331   0.08683  -0.0132   1.0000   0.3042
  -8.250  -0.4757   0.09638   0.08983  -0.0149   1.0000   0.2885
  -8.250  -0.4758   0.09638   0.08983  -0.0149   1.0000   0.2885
  -8.350  -0.4849   0.09846   0.09191  -0.0157   1.0000   0.2837
  -8.450  -0.4711   0.09853   0.09190  -0.0157   1.0000   0.2779
  -8.750  -0.4724   0.10219   0.09548  -0.0170   1.0000   0.2621
  -9.000  -0.4704   0.10518   0.09840  -0.0175   1.0000   0.2509
  -9.250  -0.4730   0.10856   0.10171  -0.0182   1.0000   0.2401
  -9.500  -0.4839   0.11277   0.10589  -0.0193   1.0000   0.2290
  -9.750  -0.4784   0.11493   0.10799  -0.0190   1.0000   0.2191
 -10.000  -0.4740   0.11794   0.11090  -0.0185   1.0000   0.2114
 -10.250  -0.4922   0.12297   0.11594  -0.0199   1.0000   0.2021
 -10.500  -0.4776   0.12428   0.11714  -0.0181   1.0000   0.1944
 -10.750  -0.4894   0.12894   0.12178  -0.0187   1.0000   0.1878
 -11.000  -0.4824   0.13087   0.12364  -0.0174   1.0000   0.1802
 -11.250  -0.4965   0.13590   0.12867  -0.0180   1.0000   0.1744
 -11.500  -0.4869   0.13737   0.13005  -0.0161   1.0000   0.1680
 -11.750  -0.5082   0.14353   0.13624  -0.0175   1.0000   0.1613
 -12.000  -0.4937   0.14410   0.13670  -0.0148   1.0000   0.1570
 -12.250  -0.5214   0.15155   0.14427  -0.0169   1.0000   0.1480
 -12.500  -0.5069   0.15171   0.14433  -0.0139   1.0000   0.1463
 -12.750  -0.5045   0.15372   0.14629  -0.0122   1.0000   0.1411
 -13.000  -0.5283   0.16097   0.15357  -0.0137   1.0000   0.1342
 -13.250  -0.5167   0.16106   0.15358  -0.0108   1.0000   0.1320
 -13.500  -0.5183   0.16342   0.15591  -0.0094   1.0000   0.1263
 -13.750  -0.5403   0.17092   0.16343  -0.0106   1.0000   0.1205
 -14.000  -0.5331   0.17123   0.16367  -0.0079   1.0000   0.1192
 -14.250  -0.5333   0.17297   0.16538  -0.0060   1.0000   0.1157
 -14.500  -0.5422   0.17670   0.16910  -0.0054   1.0000   0.1101
 -14.750  -0.5622   0.18472   0.17713  -0.0059   1.0000   0.1071
 -15.000  -0.5560   0.18432   0.17666  -0.0032   1.0000   0.1060
 -15.250  -0.5567   0.18576   0.17806  -0.0010   1.0000   0.1030
 -15.500  -0.5629   0.18866   0.18095   0.0004   1.0000   0.0995
 -15.750  -0.5743   0.19322   0.18552   0.0008   1.0000   0.0958
 -16.000  -0.5927   0.20152   0.19383   0.0007   1.0000   0.0937
 -16.250  -0.5886   0.20067   0.19293   0.0035   1.0000   0.0929
 -16.500  -0.5903   0.20162   0.19384   0.0060   1.0000   0.0909
 -16.750  -0.5961   0.20418   0.19638   0.0078   1.0000   0.0878
 -17.000  -0.6040   0.20735   0.19954   0.0091   1.0000   0.0850
 -17.250  -0.6160   0.21237   0.20459   0.0095   1.0000   0.0820
 -17.500  -0.6332   0.22144   0.21374   0.0096   1.0000   0.0804
 -17.750  -0.6322   0.22040   0.21265   0.0125   1.0000   0.0799
 -18.000  -0.6347   0.22078   0.21300   0.0151   1.0000   0.0788
 -18.250  -0.6403   0.22262   0.21482   0.0173   1.0000   0.0766
 -18.500  -0.6475   0.22533   0.21752   0.0191   1.0000   0.0743
 -18.750  -0.6555   0.22835   0.22054   0.0207   1.0000   0.0721
 -19.000  -0.6649   0.23211   0.22431   0.0219   1.0000   0.0699
 -19.250  -0.6900   0.24769   0.23994   0.0204   1.0000   0.0674
 -19.500  -0.6898   0.24587   0.23808   0.0233   1.0000   0.0672
 -19.750  -0.6919   0.24489   0.23706   0.0262   1.0000   0.0668
 -20.000  -0.6962   0.24510   0.23725   0.0289   1.0000   0.0660
