  
       XFOIL         Version 6.99
  
 Calculated polar for: E168  (12.45%)                                  
  
 1 1 Reynolds number fixed          Mach number fixed         
  
 xtrf =   1.000 (top)        1.000 (bottom)  
 Mach =   0.000     Re =     0.050 e 6     Ncrit =   9.000
  
   alpha    CL        CD       CDp       CM     Top_Xtr  Bot_Xtr
  ------ -------- --------- --------- -------- -------- --------
   0.000  -0.0001   0.02422   0.01561   0.0000   0.9339   0.9339
   0.250   0.1465   0.02369   0.01511  -0.0213   0.9106   0.9566
   0.500   0.2579   0.02271   0.01415  -0.0365   0.8785   0.9789
   0.750   0.3309   0.02195   0.01338  -0.0453   0.8422   1.0000
   1.000   0.3448   0.02200   0.01336  -0.0439   0.8137   1.0000
   1.250   0.3565   0.02210   0.01340  -0.0421   0.7886   1.0000
   1.500   0.3664   0.02231   0.01358  -0.0401   0.7642   1.0000
   1.750   0.3783   0.02252   0.01373  -0.0380   0.7430   1.0000
   2.000   0.3889   0.02286   0.01406  -0.0358   0.7222   1.0000
   2.250   0.3995   0.02328   0.01445  -0.0335   0.7021   1.0000
   2.500   0.4119   0.02371   0.01483  -0.0311   0.6834   1.0000
   2.750   0.4263   0.02418   0.01525  -0.0288   0.6658   1.0000
   3.000   0.4424   0.02467   0.01570  -0.0266   0.6485   1.0000
   3.250   0.4583   0.02539   0.01642  -0.0248   0.6301   1.0000
   3.500   0.4754   0.02609   0.01713  -0.0231   0.6120   1.0000
   3.750   0.4936   0.02680   0.01784  -0.0214   0.5948   1.0000
   4.000   0.5124   0.02751   0.01858  -0.0197   0.5778   1.0000
   4.250   0.5317   0.02826   0.01935  -0.0180   0.5613   1.0000
   4.500   0.5515   0.02900   0.02011  -0.0164   0.5448   1.0000
   4.750   0.5716   0.02977   0.02092  -0.0148   0.5285   1.0000
   5.000   0.5922   0.03049   0.02169  -0.0132   0.5122   1.0000
   5.250   0.6132   0.03122   0.02245  -0.0116   0.4959   1.0000
   5.500   0.6351   0.03184   0.02310  -0.0099   0.4793   1.0000
   5.750   0.6529   0.03297   0.02435  -0.0085   0.4614   1.0000
   6.000   0.6713   0.03398   0.02551  -0.0070   0.4428   1.0000
   6.250   0.6916   0.03476   0.02637  -0.0053   0.4244   1.0000
   6.500   0.7149   0.03512   0.02674  -0.0035   0.4057   1.0000
   6.750   0.7369   0.03559   0.02724  -0.0016   0.3858   1.0000
   7.000   0.7543   0.03657   0.02837   0.0001   0.3642   1.0000
   7.250   0.7830   0.03613   0.02778   0.0023   0.3424   1.0000
   7.500   0.7976   0.03730   0.02915   0.0041   0.3183   1.0000
   7.750   0.8199   0.03757   0.02937   0.0061   0.2938   1.0000
   8.000   0.8459   0.03739   0.02894   0.0081   0.2677   1.0000
   8.250   0.8586   0.03879   0.03056   0.0101   0.2429   1.0000
   8.500   0.8758   0.03976   0.03149   0.0120   0.2189   1.0000
   8.750   0.8963   0.04044   0.03197   0.0138   0.1960   1.0000
   9.000   0.9089   0.04242   0.03403   0.0155   0.1783   1.0000
   9.250   0.9198   0.04468   0.03641   0.0171   0.1636   1.0000
   9.500   0.9332   0.04692   0.03867   0.0185   0.1508   1.0000
   9.750   0.9255   0.05103   0.04331   0.0202   0.1446   1.0000
  10.000   0.9384   0.05375   0.04603   0.0213   0.1367   1.0000
  10.250   0.9181   0.05879   0.05151   0.0225   0.1352   1.0000
  10.500   0.8928   0.06411   0.05707   0.0229   0.1353   1.0000
  10.750   0.8622   0.06961   0.06269   0.0226   0.1363   1.0000
  11.000   0.8347   0.07621   0.06932   0.0200   0.1375   1.0000
  11.000   0.8346   0.07620   0.06932   0.0200   0.1375   1.0000
  11.100   0.8238   0.07920   0.07233   0.0185   0.1379   1.0000
  12.250   0.5997   0.14452   0.13699  -0.0306   0.2762   1.0000
  12.000   0.6135   0.14243   0.13496  -0.0286   0.2820   1.0000
  12.100   0.6048   0.14308   0.13557  -0.0296   0.2806   1.0000
  12.200   0.5999   0.14390   0.13638  -0.0303   0.2778   1.0000
  12.500   0.6215   0.15039   0.14292  -0.0303   0.2671   1.0000
  12.250   0.5997   0.14452   0.13699  -0.0306   0.2762   1.0000
  12.350   0.6037   0.14610   0.13859  -0.0307   0.2724   1.0000
  12.450   0.6264   0.15021   0.14277  -0.0298   0.2675   1.0000
  12.750   0.6089   0.15203   0.14451  -0.0323   0.2601   1.0000
  12.500   0.6215   0.15039   0.14292  -0.0303   0.2671   1.0000
  12.600   0.6136   0.15085   0.14335  -0.0313   0.2659   1.0000
  12.700   0.6083   0.15146   0.14394  -0.0322   0.2625   1.0000
  13.000   0.6294   0.15789   0.15042  -0.0322   0.2522   1.0000
  12.750   0.6089   0.15203   0.14451  -0.0323   0.2601   1.0000
  12.850   0.6339   0.15604   0.14862  -0.0310   0.2535   1.0000
  12.950   0.6333   0.15771   0.15026  -0.0317   0.2526   1.0000
  13.250   0.6189   0.15953   0.15202  -0.0344   0.2457   1.0000
  13.500   0.6452   0.16640   0.15895  -0.0339   0.2379   1.0000
  13.750   0.6302   0.16701   0.15949  -0.0366   0.2326   1.0000
  14.000   0.6607   0.17476   0.16732  -0.0356   0.2235   1.0000
  14.250   0.6438   0.17464   0.16712  -0.0387   0.2199   1.0000
  14.500   0.6509   0.17802   0.17051  -0.0398   0.2130   1.0000
  14.750   0.6656   0.18366   0.17616  -0.0403   0.2081   1.0000
  15.000   0.6611   0.18490   0.17737  -0.0428   0.2015   1.0000
  15.250   0.6913   0.19362   0.18618  -0.0416   0.1945   1.0000
  15.500   0.6772   0.19263   0.18511  -0.0452   0.1916   1.0000
  15.750   0.6826   0.19551   0.18798  -0.0468   0.1853   1.0000
  16.000   0.7071   0.20367   0.19619  -0.0461   0.1800   1.0000
  16.250   0.6975   0.20286   0.19532  -0.0497   0.1768   1.0000
  16.500   0.7064   0.20612   0.19858  -0.0509   0.1694   1.0000
  16.750   0.7261   0.21366   0.20615  -0.0508   0.1657   1.0000
  17.000   0.7193   0.21294   0.20537  -0.0544   0.1623   1.0000
  17.250   0.7267   0.21596   0.20839  -0.0560   0.1569   1.0000
  17.500   0.7490   0.22388   0.21639  -0.0553   0.1524   1.0000
  17.750   0.7472   0.22470   0.21714  -0.0584   0.1507   1.0000
  18.000   0.7489   0.22585   0.21827  -0.0612   0.1453   1.0000
  18.250   0.7621   0.23028   0.22272  -0.0618   0.1400   1.0000
  18.500   0.7767   0.23706   0.22950  -0.0624   0.1376   1.0000
  18.750   0.7738   0.23616   0.22856  -0.0662   0.1349   1.0000
  19.000   0.7806   0.23879   0.23118  -0.0682   0.1304   1.0000
  19.250   0.7924   0.24295   0.23536  -0.0691   0.1266   1.0000
  19.500   0.8132   0.25304   0.24548  -0.0686   0.1242   1.0000
  19.750   0.8084   0.25033   0.24271  -0.0728   0.1229   1.0000
  20.000   0.8125   0.25168   0.24404  -0.0756   0.1192   1.0000
   0.000  -0.0001   0.02422   0.01561   0.0000   0.9339   0.9339
  -0.250  -0.1462   0.02369   0.01511   0.0213   0.9565   0.9105
  -0.500  -0.2577   0.02272   0.01416   0.0364   0.9788   0.8785
  -0.750  -0.3309   0.02195   0.01337   0.0453   1.0000   0.8421
  -1.000  -0.3449   0.02200   0.01336   0.0440   1.0000   0.8137
  -1.250  -0.3565   0.02210   0.01340   0.0421   1.0000   0.7886
  -1.500  -0.3664   0.02231   0.01358   0.0401   1.0000   0.7641
  -1.750  -0.3784   0.02251   0.01373   0.0380   1.0000   0.7429
  -2.000  -0.3890   0.02286   0.01406   0.0358   1.0000   0.7222
  -2.250  -0.3996   0.02328   0.01445   0.0335   1.0000   0.7022
  -2.500  -0.4120   0.02371   0.01484   0.0311   1.0000   0.6834
  -2.750  -0.4264   0.02418   0.01525   0.0288   1.0000   0.6657
  -3.000  -0.4425   0.02468   0.01569   0.0266   1.0000   0.6485
  -3.250  -0.4583   0.02539   0.01642   0.0248   1.0000   0.6300
  -3.500  -0.4755   0.02609   0.01712   0.0231   1.0000   0.6120
  -3.750  -0.4936   0.02680   0.01785   0.0214   1.0000   0.5948
  -4.000  -0.5124   0.02752   0.01857   0.0197   1.0000   0.5779
  -4.250  -0.5317   0.02826   0.01934   0.0180   1.0000   0.5613
  -4.500  -0.5515   0.02900   0.02011   0.0164   1.0000   0.5448
  -4.750  -0.5716   0.02977   0.02092   0.0148   1.0000   0.5286
  -5.000  -0.5922   0.03050   0.02170   0.0132   1.0000   0.5122
  -5.250  -0.6132   0.03121   0.02245   0.0116   1.0000   0.4959
  -5.500  -0.6350   0.03185   0.02311   0.0099   1.0000   0.4794
  -5.750  -0.6529   0.03297   0.02435   0.0085   1.0000   0.4614
  -6.000  -0.6713   0.03399   0.02550   0.0070   1.0000   0.4429
  -6.250  -0.6916   0.03476   0.02637   0.0053   1.0000   0.4244
  -6.500  -0.7149   0.03512   0.02674   0.0035   1.0000   0.4057
  -6.750  -0.7369   0.03560   0.02725   0.0016   1.0000   0.3858
  -7.000  -0.7543   0.03658   0.02838  -0.0001   1.0000   0.3643
  -7.250  -0.7829   0.03613   0.02778  -0.0023   1.0000   0.3423
  -7.500  -0.7976   0.03729   0.02914  -0.0041   1.0000   0.3183
  -7.750  -0.8198   0.03756   0.02936  -0.0061   1.0000   0.2938
  -8.000  -0.8458   0.03739   0.02894  -0.0081   1.0000   0.2677
  -8.250  -0.8585   0.03881   0.03058  -0.0101   1.0000   0.2430
  -8.500  -0.8758   0.03975   0.03148  -0.0120   1.0000   0.2191
  -8.750  -0.8960   0.04048   0.03202  -0.0138   1.0000   0.1961
  -9.000  -0.9090   0.04242   0.03402  -0.0155   1.0000   0.1783
  -9.250  -0.9197   0.04468   0.03641  -0.0171   1.0000   0.1636
  -9.500  -0.9334   0.04691   0.03864  -0.0185   1.0000   0.1509
  -9.750  -0.9253   0.05102   0.04330  -0.0202   1.0000   0.1446
 -10.000  -0.9378   0.05377   0.04606  -0.0214   1.0000   0.1366
 -10.250  -0.9177   0.05877   0.05149  -0.0225   1.0000   0.1352
 -10.500  -0.8922   0.06410   0.05706  -0.0229   1.0000   0.1352
 -10.750  -0.8627   0.06955   0.06263  -0.0227   1.0000   0.1363
 -11.000  -0.8344   0.07618   0.06930  -0.0201   1.0000   0.1375
 -12.250  -0.5987   0.14446   0.13694   0.0304   1.0000   0.2762
 -12.500  -0.6216   0.15044   0.14299   0.0301   1.0000   0.2672
 -12.750  -0.6079   0.15196   0.14445   0.0322   1.0000   0.2601
 -13.000  -0.6286   0.15783   0.15037   0.0321   1.0000   0.2522
 -13.250  -0.6179   0.15945   0.15194   0.0342   1.0000   0.2458
 -13.500  -0.6437   0.16623   0.15878   0.0337   1.0000   0.2379
 -13.750  -0.6293   0.16693   0.15941   0.0364   1.0000   0.2329
 -14.000  -0.6601   0.17470   0.16726   0.0354   1.0000   0.2235
 -14.250  -0.6428   0.17452   0.16700   0.0386   1.0000   0.2200
 -14.500  -0.6499   0.17789   0.17038   0.0397   1.0000   0.2130
 -14.750  -0.6657   0.18372   0.17623   0.0400   1.0000   0.2082
 -14.500  -0.6499   0.17789   0.17038   0.0397   1.0000   0.2130
 -14.600  -0.6657   0.18170   0.17424   0.0388   1.0000   0.2098
 -14.700  -0.6691   0.18390   0.17642   0.0393   1.0000   0.2086
 -15.000  -0.6601   0.18472   0.17719   0.0426   1.0000   0.2013
 -14.750  -0.6657   0.18372   0.17623   0.0400   1.0000   0.2082
 -14.850  -0.6592   0.18341   0.17588   0.0415   1.0000   0.2062
 -14.950  -0.6587   0.18411   0.17658   0.0423   1.0000   0.2031
 -15.250  -0.6908   0.19354   0.18610   0.0414   1.0000   0.1945
 -15.500  -0.6763   0.19245   0.18493   0.0450   1.0000   0.1917
 -15.750  -0.6816   0.19530   0.18777   0.0466   1.0000   0.1853
 -16.000  -0.7062   0.20345   0.19597   0.0459   1.0000   0.1800
 -16.250  -0.6961   0.20252   0.19497   0.0496   1.0000   0.1764
 -16.500  -0.7046   0.20568   0.19814   0.0509   1.0000   0.1699
 -16.750  -0.7258   0.21353   0.20602   0.0505   1.0000   0.1657
 -17.000  -0.7183   0.21262   0.20505   0.0542   1.0000   0.1623
 -17.250  -0.7256   0.21558   0.20800   0.0559   1.0000   0.1570
 -17.500  -0.7463   0.22278   0.21528   0.0554   1.0000   0.1526
 -17.750  -0.7469   0.22450   0.21695   0.0581   1.0000   0.1508
 -18.000  -0.7478   0.22538   0.21780   0.0610   1.0000   0.1457
 -18.250  -0.7609   0.22969   0.22214   0.0616   1.0000   0.1401
 -18.500  -0.7755   0.23647   0.22891   0.0622   1.0000   0.1376
 -18.750  -0.7727   0.23559   0.22798   0.0660   1.0000   0.1348
 -19.000  -0.7796   0.23820   0.23059   0.0680   1.0000   0.1304
 -19.250  -0.7912   0.24225   0.23465   0.0689   1.0000   0.1267
 -19.500  -0.8125   0.25255   0.24499   0.0683   1.0000   0.1242
 -19.750  -0.8078   0.24977   0.24215   0.0725   1.0000   0.1230
 -20.000  -0.8115   0.25091   0.24327   0.0754   1.0000   0.1191
