  
       XFOIL         Version 6.99
  
 Calculated polar for: AVISTAR                                         
  
 1 1 Reynolds number fixed          Mach number fixed         
  
 xtrf =   1.000 (top)        1.000 (bottom)  
 Mach =   0.000     Re =     0.050 e 6     Ncrit =   9.000
  
   alpha    CL        CD       CDp       CM     Top_Xtr  Bot_Xtr
  ------ -------- --------- --------- -------- -------- --------
   0.000   0.0552   0.03395   0.02459  -0.0431   0.9026   1.0000
   0.250   0.0855   0.03466   0.02508  -0.0447   0.8927   1.0000
   0.500   0.0990   0.03539   0.02565  -0.0436   0.8823   1.0000
   0.750   0.1343   0.03618   0.02627  -0.0459   0.8732   1.0000
   1.000   0.1416   0.03702   0.02697  -0.0437   0.8634   1.0000
   1.250   0.1745   0.03787   0.02769  -0.0455   0.8549   1.0000
   1.500   0.1827   0.03880   0.02851  -0.0435   0.8455   1.0000
   1.750   0.2125   0.03969   0.02930  -0.0447   0.8368   1.0000
   2.000   0.2240   0.04070   0.03022  -0.0432   0.8278   1.0000
   2.250   0.2528   0.04160   0.03105  -0.0442   0.8182   1.0000
   2.500   0.2655   0.04262   0.03201  -0.0428   0.8080   1.0000
   2.750   0.3075   0.04339   0.03273  -0.0454   0.7973   1.0000
   3.000   0.3111   0.04445   0.03375  -0.0427   0.7852   1.0000
   3.250   0.3419   0.04529   0.03456  -0.0436   0.7736   1.0000
   3.500   0.3706   0.04607   0.03533  -0.0441   0.7614   1.0000
   3.750   0.3807   0.04721   0.03645  -0.0424   0.7489   1.0000
   4.000   0.4122   0.04800   0.03725  -0.0431   0.7369   1.0000
   4.250   0.4415   0.04874   0.03802  -0.0435   0.7245   1.0000
   4.500   0.4499   0.05001   0.03930  -0.0417   0.7109   1.0000
   4.750   0.4718   0.05102   0.04035  -0.0413   0.6979   1.0000
   5.000   0.5164   0.05128   0.04069  -0.0429   0.6859   1.0000
   5.250   0.5287   0.05250   0.04195  -0.0414   0.6714   1.0000
   5.500   0.5378   0.05399   0.04348  -0.0398   0.6569   1.0000
   5.750   0.5538   0.05530   0.04484  -0.0388   0.6429   1.0000
   6.000   0.5823   0.05610   0.04573  -0.0388   0.6302   1.0000
   6.250   0.6131   0.05672   0.04647  -0.0388   0.6178   1.0000
   6.500   0.6121   0.05906   0.04883  -0.0369   0.6032   1.0000
   6.750   0.6182   0.06122   0.05105  -0.0356   0.5906   1.0000
   7.000   0.6657   0.06104   0.05104  -0.0364   0.5815   1.0000
   7.250   0.6452   0.06496   0.05494  -0.0342   0.5682   1.0000
   7.500   0.6523   0.06727   0.05733  -0.0332   0.5572   1.0000
   7.750   0.9543   0.03623   0.02710  -0.0340   0.5041   1.0000
   8.000   0.9904   0.03349   0.02439  -0.0315   0.4761   1.0000
   8.250   1.0001   0.03299   0.02399  -0.0273   0.4503   1.0000
   8.500   1.0044   0.03256   0.02354  -0.0223   0.4192   1.0000
   8.750   0.9954   0.03310   0.02409  -0.0166   0.3830   1.0000
   9.000   0.9865   0.03385   0.02471  -0.0112   0.3389   1.0000
   9.250   0.9773   0.03522   0.02560  -0.0064   0.2785   1.0000
   9.500   0.9643   0.03770   0.02759  -0.0026   0.2217   1.0000
   9.750   0.9527   0.04063   0.03012   0.0002   0.1809   1.0000
  10.000   0.9458   0.04348   0.03269   0.0023   0.1592   1.0000
  10.250   0.9431   0.04612   0.03514   0.0041   0.1471   1.0000
  10.500   0.9427   0.04861   0.03746   0.0057   0.1392   1.0000
  10.750   0.9493   0.05059   0.03941   0.0072   0.1319   1.0000
  11.000   0.9573   0.05244   0.04107   0.0088   0.1263   1.0000
  11.250   0.9731   0.05379   0.04251   0.0103   0.1208   1.0000
  11.500   0.9968   0.05464   0.04325   0.0119   0.1158   1.0000
  11.750   1.0443   0.05466   0.04332   0.0131   0.1120   1.0000
  12.000   1.0924   0.05561   0.04445   0.0135   0.1094   1.0000
  12.250   1.1315   0.05750   0.04652   0.0134   0.1072   1.0000
  12.500   1.1635   0.05993   0.04909   0.0133   0.1051   1.0000
  12.750   1.2022   0.06317   0.05241   0.0122   0.1031   1.0000
  13.000   1.2148   0.06662   0.05610   0.0130   0.1029   1.0000
  13.250   1.2055   0.06975   0.05961   0.0153   0.1033   1.0000
  13.500   1.1855   0.07332   0.06356   0.0175   0.1040   1.0000
  13.750   1.1536   0.07783   0.06847   0.0191   0.1049   1.0000
  14.000   1.1089   0.08392   0.07496   0.0192   0.1061   1.0000
  14.250   1.0556   0.09220   0.08359   0.0170   0.1077   1.0000
  14.500   0.9924   0.10389   0.09556   0.0116   0.1104   1.0000
  14.750   0.9487   0.11542   0.10721   0.0059   0.1129   1.0000
  15.000   0.9279   0.12444   0.11629   0.0020   0.1146   1.0000
  15.000   0.9307   0.12392   0.11574   0.0024   0.1144   1.0000
  15.500   0.7952   0.17615   0.16778  -0.0284   0.1654   1.0000
  15.700   0.5271   0.16631   0.15865  -0.0154   0.2420   1.0000
  16.000   0.5333   0.17065   0.16300  -0.0164   0.2415   1.0000
  16.250   0.5421   0.17521   0.16758  -0.0172   0.2408   1.0000
  16.500   0.5285   0.17516   0.16752  -0.0185   0.2398   1.0000
  16.750   0.5200   0.17582   0.16818  -0.0198   0.2363   1.0000
  17.000   0.5219   0.17802   0.17039  -0.0206   0.2319   1.0000
  17.250   0.5306   0.18118   0.17358  -0.0211   0.2279   1.0000
  17.500   0.5550   0.18873   0.18115  -0.0212   0.2249   1.0000
  17.750   0.5364   0.18671   0.17912  -0.0229   0.2226   1.0000
  18.000   0.5348   0.18808   0.18050  -0.0240   0.2171   1.0000
  18.250   0.5423   0.19104   0.18349  -0.0245   0.2128   1.0000
  18.500   0.5584   0.19649   0.18898  -0.0248   0.2100   1.0000
  18.750   0.5553   0.19811   0.19058  -0.0261   0.2083   1.0000
  19.000   0.5490   0.19839   0.19087  -0.0276   0.2039   1.0000
  19.250   0.5536   0.20086   0.19337  -0.0284   0.1993   1.0000
  19.500   0.5656   0.20504   0.19758  -0.0287   0.1957   1.0000
  19.750   0.5723   0.20913   0.20169  -0.0296   0.1937   1.0000
  20.000   0.5638   0.20863   0.20119  -0.0313   0.1894   1.0000
   0.000   0.0667   0.02215   0.01409  -0.0446   0.8773   1.0000
  -0.250   0.0711   0.02264   0.01475  -0.0473   0.8854   1.0000
  -0.500   0.0757   0.02310   0.01537  -0.0498   0.8937   1.0000
  -0.750   0.0711   0.02356   0.01599  -0.0506   0.9026   1.0000
  -1.000  -0.0506   0.03176   0.02350  -0.0375   0.9492   1.0000
  -1.000  -0.0506   0.03176   0.02350  -0.0375   0.9492   1.0000
  -1.100  -0.0603   0.03164   0.02352  -0.0369   0.9549   1.0000
  -1.200  -0.0715   0.03151   0.02355  -0.0360   0.9602   1.0000
  -1.500  -0.2449   0.03271   0.02122  -0.0161   0.9627   0.1958
  -1.750  -0.2834   0.03295   0.02141  -0.0133   0.9734   0.1789
  -2.000  -0.3287   0.03325   0.02165  -0.0095   0.9838   0.1681
  -2.250  -0.3797   0.03341   0.02185  -0.0047   0.9940   0.1582
  -2.500  -0.4221   0.03406   0.02240  -0.0015   1.0000   0.1536
  -2.750  -0.4425   0.03460   0.02309  -0.0022   1.0000   0.1523
  -3.000  -0.4627   0.03529   0.02396  -0.0030   1.0000   0.1510
  -3.250  -0.4824   0.03610   0.02500  -0.0038   1.0000   0.1494
  -3.500  -0.5017   0.03706   0.02619  -0.0047   1.0000   0.1478
  -3.750  -0.5209   0.03825   0.02764  -0.0057   1.0000   0.1474
  -4.000  -0.5399   0.03972   0.02941  -0.0067   1.0000   0.1487
  -4.250  -0.5583   0.04146   0.03142  -0.0078   1.0000   0.1506
  -4.500  -0.5760   0.04348   0.03367  -0.0088   1.0000   0.1526
  -4.750  -0.5930   0.04587   0.03622  -0.0098   1.0000   0.1540
  -5.000  -0.6027   0.04788   0.03922  -0.0122   1.0000   0.1608
  -5.250  -0.6120   0.05084   0.04257  -0.0138   1.0000   0.1656
  -5.500  -0.6231   0.05389   0.04572  -0.0152   1.0000   0.1694
  -5.750  -0.6224   0.05828   0.05083  -0.0169   1.0000   0.1852
  -6.000  -0.6295   0.06356   0.05634  -0.0176   1.0000   0.2049
  -6.000  -0.6063   0.06541   0.05872  -0.0168   1.0000   0.2186
