  
       XFOIL         Version 6.99
  
 Calculated polar for: S8052 (11.88%)                                  
  
 1 1 Reynolds number fixed          Mach number fixed         
  
 xtrf =   1.000 (top)        1.000 (bottom)  
 Mach =   0.000     Re =     0.050 e 6     Ncrit =   9.000
  
   alpha    CL        CD       CDp       CM     Top_Xtr  Bot_Xtr
  ------ -------- --------- --------- -------- -------- --------
   0.000  -0.1176   0.02376   0.01424   0.0035   1.0000   1.0000
   0.250  -0.1052   0.02403   0.01436   0.0044   1.0000   1.0000
   0.500  -0.0874   0.02448   0.01467   0.0042   0.9986   1.0000
   0.750  -0.0391   0.02574   0.01578  -0.0015   0.9853   1.0000
   1.000   0.0078   0.02698   0.01690  -0.0067   0.9713   1.0000
   1.250   0.0524   0.02813   0.01796  -0.0114   0.9567   1.0000
   1.500   0.0962   0.02925   0.01901  -0.0157   0.9412   1.0000
   1.750   0.1346   0.03021   0.01992  -0.0189   0.9247   1.0000
   2.000   0.1712   0.03113   0.02081  -0.0216   0.9072   1.0000
   2.250   0.2084   0.03204   0.02172  -0.0243   0.8888   1.0000
   2.500   0.2493   0.03293   0.02263  -0.0272   0.8696   1.0000
   2.750   0.2987   0.03378   0.02352  -0.0311   0.8503   1.0000
   3.000   0.3270   0.03446   0.02424  -0.0317   0.8290   1.0000
   3.250   0.3689   0.03501   0.02486  -0.0338   0.8076   1.0000
   3.500   0.4184   0.03532   0.02529  -0.0366   0.7863   1.0000
   3.750   0.4504   0.03564   0.02570  -0.0368   0.7627   1.0000
   4.000   0.5145   0.03502   0.02526  -0.0402   0.7418   1.0000
   4.250   0.5390   0.03514   0.02549  -0.0387   0.7168   1.0000
   4.500   0.5927   0.03388   0.02440  -0.0393   0.6960   1.0000
   4.750   0.6200   0.03347   0.02409  -0.0374   0.6702   1.0000
   5.000   0.6711   0.03151   0.02230  -0.0366   0.6489   1.0000
   5.250   0.6994   0.03067   0.02155  -0.0343   0.6210   1.0000
   5.500   0.7325   0.02946   0.02042  -0.0321   0.5924   1.0000
   5.750   0.7671   0.02815   0.01911  -0.0299   0.5616   1.0000
   6.000   0.8006   0.02716   0.01800  -0.0279   0.5285   1.0000
   6.250   0.8232   0.02727   0.01803  -0.0257   0.4924   1.0000
   6.500   0.8477   0.02754   0.01813  -0.0238   0.4581   1.0000
   6.750   0.8709   0.02817   0.01858  -0.0222   0.4263   1.0000
   7.000   0.8924   0.02905   0.01936  -0.0206   0.3969   1.0000
   7.250   0.9135   0.03014   0.02036  -0.0193   0.3705   1.0000
   7.500   0.9379   0.03119   0.02119  -0.0182   0.3460   1.0000
   7.750   0.9547   0.03268   0.02281  -0.0167   0.3238   1.0000
   8.000   0.9773   0.03399   0.02403  -0.0157   0.3027   1.0000
   8.250   0.9968   0.03565   0.02570  -0.0145   0.2840   1.0000
   8.500   1.0128   0.03743   0.02762  -0.0130   0.2663   1.0000
   8.750   1.0297   0.03938   0.02969  -0.0117   0.2508   1.0000
   8.750   1.0297   0.03938   0.02969  -0.0117   0.2508   1.0000
   8.850   1.0374   0.04005   0.03037  -0.0113   0.2444   1.0000
   8.950   1.0454   0.04085   0.03114  -0.0109   0.2387   1.0000
   9.250   1.0628   0.04355   0.03406  -0.0093   0.2236   1.0000
   9.500   1.0816   0.04567   0.03621  -0.0083   0.2116   1.0000
   9.750   1.0780   0.04881   0.03989  -0.0057   0.2037   1.0000
  10.000   1.0961   0.05138   0.04246  -0.0049   0.1951   1.0000
  10.250   1.0827   0.05537   0.04698  -0.0021   0.1913   1.0000
  10.500   1.0755   0.05898   0.05088  -0.0001   0.1867   1.0000
  10.750   1.0870   0.06187   0.05380   0.0009   0.1800   1.0000
  11.000   1.0586   0.06661   0.05886   0.0033   0.1794   1.0000
  11.250   1.0242   0.07165   0.06407   0.0053   0.1799   1.0000
  11.500   0.9897   0.07778   0.07029   0.0053   0.1809   1.0000
  12.000   0.7791   0.12221   0.11437  -0.0224   0.2261   1.0000
  11.750   0.7619   0.11828   0.11033  -0.0228   0.2288   1.0000
  11.850   0.7650   0.12009   0.11216  -0.0230   0.2278   1.0000
  11.950   0.7740   0.12147   0.11360  -0.0226   0.2266   1.0000
  12.500   0.6931   0.14754   0.13948  -0.0423   0.3330   1.0000
  12.750   0.6882   0.15086   0.14280  -0.0437   0.3270   1.0000
  12.500   0.6931   0.14754   0.13949  -0.0423   0.3330   1.0000
  12.600   0.7098   0.15093   0.14293  -0.0425   0.3310   1.0000
  12.700   0.6936   0.15078   0.14272  -0.0433   0.3292   1.0000
  13.000   0.7210   0.15714   0.14921  -0.0436   0.3161   1.0000
  13.250   0.6978   0.15773   0.14972  -0.0454   0.3080   1.0000
  13.500   0.7146   0.16257   0.15461  -0.0458   0.2994   1.0000
  13.750   0.7143   0.16508   0.15713  -0.0470   0.2896   1.0000
  14.000   0.7296   0.17040   0.16251  -0.0477   0.2848   1.0000
  14.250   0.7242   0.17209   0.16421  -0.0494   0.2756   1.0000
  14.500   0.7391   0.17719   0.16936  -0.0500   0.2695   1.0000
  14.750   0.7397   0.17926   0.17144  -0.0514   0.2593   1.0000
  15.000   0.7512   0.18409   0.17630  -0.0524   0.2543   1.0000
  15.250   0.7494   0.18595   0.17816  -0.0543   0.2464   1.0000
  15.500   0.7796   0.19410   0.18643  -0.0538   0.2407   1.0000
  15.750   0.7621   0.19302   0.18527  -0.0572   0.2352   1.0000
  16.000   0.7859   0.19922   0.19158  -0.0568   0.2267   1.0000
  16.250   0.7776   0.20015   0.19245  -0.0599   0.2221   1.0000
  16.500   0.7864   0.20344   0.19580  -0.0611   0.2148   1.0000
  16.750   0.8080   0.21098   0.20342  -0.0612   0.2107   1.0000
  17.000   0.7974   0.21008   0.20246  -0.0648   0.2054   1.0000
  17.250   0.8143   0.21516   0.20763  -0.0650   0.1979   1.0000
  17.500   0.8167   0.21808   0.21053  -0.0673   0.1943   1.0000
  17.750   0.8197   0.22008   0.21255  -0.0696   0.1875   1.0000
  18.000   0.8485   0.23015   0.22278  -0.0684   0.1819   1.0000
  18.250   0.8366   0.22782   0.22033  -0.0727   0.1790   1.0000
  18.500   0.8429   0.23036   0.22292  -0.0746   0.1717   1.0000
  18.750   0.8671   0.24016   0.23281  -0.0738   0.1670   1.0000
  19.000   0.8578   0.23765   0.23023  -0.0783   0.1639   1.0000
  19.250   0.8654   0.24052   0.23313  -0.0800   0.1571   1.0000
  19.500   0.8852   0.24926   0.24194  -0.0797   0.1525   1.0000
  19.750   0.8797   0.24749   0.24011  -0.0840   0.1491   1.0000
  20.000   0.8876   0.25050   0.24315  -0.0858   0.1431   1.0000
   0.000  -0.1176   0.02376   0.01424   0.0035   1.0000   1.0000
  -0.250  -0.1263   0.02363   0.01426   0.0020   1.0000   1.0000
  -0.500  -0.1291   0.02369   0.01445  -0.0003   1.0000   1.0000
  -0.750  -0.1265   0.02390   0.01477  -0.0033   1.0000   1.0000
  -1.000  -0.1204   0.02420   0.01516  -0.0068   1.0000   1.0000
  -1.250  -0.1134   0.02450   0.01554  -0.0104   1.0000   1.0000
  -1.500  -0.1064   0.02479   0.01590  -0.0139   1.0000   1.0000
  -1.750  -0.0993   0.02506   0.01624  -0.0173   1.0000   1.0000
  -2.000  -0.0919   0.02532   0.01658  -0.0206   1.0000   1.0000
  -2.250  -0.0838   0.02558   0.01692  -0.0238   1.0000   1.0000
  -2.500  -0.1386   0.02618   0.01785  -0.0160   1.0000   0.9836
  -2.750  -0.4150   0.02354   0.01678   0.0219   1.0000   0.8748
  -3.000  -0.4357   0.02264   0.01603   0.0161   1.0000   0.8027
  -3.250  -0.4379   0.02203   0.01544   0.0080   1.0000   0.7267
  -3.500  -0.4376   0.02140   0.01453  -0.0006   1.0000   0.6006
  -3.750  -0.4360   0.02295   0.01418  -0.0082   1.0000   0.3491
  -4.000  -0.4500   0.02551   0.01563  -0.0104   1.0000   0.2195
  -4.250  -0.4684   0.02720   0.01693  -0.0122   1.0000   0.1720
  -4.500  -0.4891   0.02873   0.01845  -0.0138   1.0000   0.1471
  -4.750  -0.5093   0.03030   0.02006  -0.0153   1.0000   0.1325
  -5.000  -0.5290   0.03213   0.02194  -0.0167   1.0000   0.1239
  -5.250  -0.5477   0.03402   0.02422  -0.0184   1.0000   0.1183
  -5.500  -0.5644   0.03597   0.02617  -0.0198   1.0000   0.1127
  -5.750  -0.5783   0.03829   0.02890  -0.0217   1.0000   0.1100
  -6.000  -0.5899   0.04076   0.03183  -0.0239   1.0000   0.1092
  -6.250  -0.5989   0.04349   0.03492  -0.0262   1.0000   0.1095
  -6.500  -0.6054   0.04633   0.03805  -0.0285   1.0000   0.1104
  -6.750  -0.6112   0.04942   0.04131  -0.0309   1.0000   0.1115
  -7.000  -0.5959   0.05269   0.04548  -0.0348   1.0000   0.1173
  -7.250  -0.5881   0.05623   0.04927  -0.0375   1.0000   0.1212
  -7.500  -0.5871   0.05979   0.05291  -0.0395   1.0000   0.1242
  -8.000  -0.5760   0.06965   0.06306  -0.0410   1.0000   0.1404
  -8.250  -0.4214   0.09334   0.08680  -0.0093   1.0000   0.3398
  -8.500  -0.4122   0.09591   0.08925  -0.0089   1.0000   0.3279
  -8.250  -0.4214   0.09334   0.08680  -0.0093   1.0000   0.3398
  -8.350  -0.4093   0.09394   0.08732  -0.0091   1.0000   0.3329
  -8.450  -0.4091   0.09518   0.08852  -0.0088   1.0000   0.3310
  -9.000  -0.4252   0.10303   0.09629  -0.0086   1.0000   0.3101
  -9.250  -0.4205   0.10596   0.09913  -0.0079   1.0000   0.3005
  -9.750  -0.4314   0.11284   0.10593  -0.0072   1.0000   0.2815
  -9.600  -0.4301   0.11115   0.10426  -0.0075   1.0000   0.2888
  -9.700  -0.4283   0.11207   0.10515  -0.0072   1.0000   0.2834
 -10.000  -0.4407   0.11696   0.11001  -0.0069   1.0000   0.2745
  -9.750  -0.4314   0.11284   0.10593  -0.0072   1.0000   0.2815
  -9.850  -0.4430   0.11491   0.10801  -0.0076   1.0000   0.2786
  -9.950  -0.4543   0.11762   0.11072  -0.0078   1.0000   0.2764
 -10.500  -0.4426   0.12298   0.11592  -0.0054   1.0000   0.2549
 -10.750  -0.4670   0.12839   0.12134  -0.0062   1.0000   0.2455
 -11.000  -0.4542   0.12972   0.12259  -0.0043   1.0000   0.2362
 -11.250  -0.4644   0.13394   0.12678  -0.0040   1.0000   0.2286
 -11.500  -0.4698   0.13692   0.12975  -0.0033   1.0000   0.2186
 -11.750  -0.4730   0.14058   0.13336  -0.0022   1.0000   0.2129
 -12.000  -0.4772   0.14348   0.13624  -0.0013   1.0000   0.2045
 -11.750  -0.4730   0.14058   0.13336  -0.0022   1.0000   0.2129
 -11.850  -0.4704   0.14126   0.13401  -0.0015   1.0000   0.2096
 -11.950  -0.4735   0.14259   0.13533  -0.0012   1.0000   0.2061
 -12.250  -0.4955   0.14919   0.14194  -0.0013   1.0000   0.1998
 -12.500  -0.4840   0.15004   0.14272   0.0012   1.0000   0.1930
 -12.750  -0.5091   0.15607   0.14879   0.0005   1.0000   0.1863
 -13.000  -0.5006   0.15782   0.15045   0.0030   1.0000   0.1830
 -13.250  -0.5022   0.16015   0.15275   0.0046   1.0000   0.1764
 -13.500  -0.5379   0.16928   0.16194   0.0031   1.0000   0.1704
 -13.750  -0.5186   0.16790   0.16045   0.0067   1.0000   0.1680
 -14.000  -0.5206   0.17013   0.16266   0.0085   1.0000   0.1620
 -14.250  -0.5573   0.18024   0.17283   0.0068   1.0000   0.1555
 -14.500  -0.5414   0.17863   0.17113   0.0104   1.0000   0.1540
 -14.750  -0.5407   0.18001   0.17246   0.0127   1.0000   0.1484
 -15.000  -0.5570   0.18493   0.17740   0.0129   1.0000   0.1425
 -15.250  -0.5680   0.19005   0.18250   0.0140   1.0000   0.1400
 -15.500  -0.5632   0.19001   0.18240   0.0171   1.0000   0.1364
 -15.750  -0.5709   0.19298   0.18536   0.0186   1.0000   0.1313
 -16.000  -0.5906   0.19952   0.19194   0.0184   1.0000   0.1271
 -16.250  -0.5988   0.20390   0.19629   0.0200   1.0000   0.1256
 -16.500  -0.5952   0.20336   0.19569   0.0233   1.0000   0.1233
 -16.750  -0.6009   0.20571   0.19803   0.0254   1.0000   0.1191
 -17.000  -0.6110   0.20919   0.20150   0.0267   1.0000   0.1155
 -17.250  -0.6332   0.21782   0.21019   0.0261   1.0000   0.1122
 -17.500  -0.6377   0.22050   0.21281   0.0284   1.0000   0.1112
 -17.750  -0.6357   0.21947   0.21173   0.0318   1.0000   0.1095
 -18.000  -0.6414   0.22143   0.21367   0.0342   1.0000   0.1062
 -18.250  -0.6502   0.22446   0.21669   0.0359   1.0000   0.1030
 -18.500  -0.6613   0.22840   0.22063   0.0371   1.0000   0.1002
 -18.750  -0.6888   0.24212   0.23443   0.0358   1.0000   0.0976
 -19.000  -0.6843   0.23877   0.23101   0.0396   1.0000   0.0971
 -19.250  -0.6852   0.23783   0.23002   0.0430   1.0000   0.0954
 -19.500  -0.6916   0.23969   0.23187   0.0455   1.0000   0.0925
 -19.750  -0.7003   0.24257   0.23475   0.0473   1.0000   0.0893
 -20.000  -0.7110   0.24641   0.23860   0.0486   1.0000   0.0865
