  
       XFOIL         Version 6.99
  
 Calculated polar for: FX 73-170 A                                     
  
 1 1 Reynolds number fixed          Mach number fixed         
  
 xtrf =   1.000 (top)        1.000 (bottom)  
 Mach =   0.000     Re =     0.050 e 6     Ncrit =   9.000
  
   alpha    CL        CD       CDp       CM     Top_Xtr  Bot_Xtr
  ------ -------- --------- --------- -------- -------- --------
  -0.250  -0.2725   0.05724   0.04610  -0.0320   0.9733   0.1279
  -0.150  -0.2612   0.05695   0.04589  -0.0322   0.9715   0.1314
  -0.050  -0.2490   0.05703   0.04596  -0.0325   0.9698   0.1354
   0.250  -0.2109   0.05800   0.04680  -0.0333   0.9663   0.1508
   0.500  -0.1893   0.05762   0.04637  -0.0327   0.9600   0.1666
   0.750  -0.1597   0.05780   0.04681  -0.0334   0.9559   0.2202
   1.000  -0.1091   0.05672   0.04834  -0.0357   0.9545   1.0000
   1.250  -0.0888   0.05760   0.04877  -0.0358   0.9476   1.0000
   1.500  -0.0601   0.05934   0.05008  -0.0374   0.9403   1.0000
   1.750  -0.0408   0.06033   0.05075  -0.0375   0.9335   1.0000
   2.000  -0.0142   0.06195   0.05205  -0.0388   0.9259   1.0000
   2.250   0.0062   0.06326   0.05311  -0.0391   0.9201   1.0000
   2.500   0.0300   0.06458   0.05419  -0.0400   0.9114   1.0000
   2.750   0.0538   0.06648   0.05587  -0.0410   0.9065   1.0000
   3.000   0.0718   0.06721   0.05644  -0.0410   0.8972   1.0000
   3.250   0.1057   0.07045   0.05943  -0.0437   0.8931   1.0000
   3.500   0.1127   0.06996   0.05885  -0.0419   0.8829   1.0000
   3.750   0.1454   0.07299   0.06170  -0.0444   0.8783   1.0000
   4.000   0.1522   0.07280   0.06143  -0.0426   0.8688   1.0000
   4.250   0.1832   0.07558   0.06405  -0.0449   0.8636   1.0000
   4.500   0.1905   0.07579   0.06420  -0.0433   0.8554   1.0000
   4.750   0.2194   0.07826   0.06656  -0.0452   0.8490   1.0000
   5.000   0.2292   0.07901   0.06726  -0.0442   0.8419   1.0000
   5.250   0.2542   0.08111   0.06927  -0.0455   0.8346   1.0000
   5.500   0.2688   0.08261   0.07073  -0.0454   0.8287   1.0000
   5.750   0.2879   0.08412   0.07219  -0.0459   0.8202   1.0000
   6.000   0.3174   0.08749   0.07549  -0.0480   0.8161   1.0000
   6.250   0.3214   0.08735   0.07537  -0.0463   0.8057   1.0000
   6.500   0.3550   0.09118   0.07915  -0.0491   0.8013   1.0000
   6.750   0.3537   0.09075   0.07874  -0.0468   0.7916   1.0000
   7.000   0.3857   0.09430   0.08228  -0.0493   0.7862   1.0000
   7.250   0.3859   0.09437   0.08237  -0.0474   0.7770   1.0000
   7.500   0.4162   0.09771   0.08572  -0.0496   0.7711   1.0000
   7.750   0.4172   0.09815   0.08620  -0.0480   0.7627   1.0000
   8.000   0.4455   0.10129   0.08935  -0.0500   0.7560   1.0000
   8.250   0.4478   0.10211   0.09022  -0.0488   0.7477   1.0000
   8.500   0.4753   0.10523   0.09338  -0.0507   0.7407   1.0000
   8.750   0.4775   0.10613   0.09433  -0.0495   0.7323   1.0000
   9.000   0.5053   0.10945   0.09772  -0.0515   0.7253   1.0000
   9.250   0.5059   0.11032   0.09865  -0.0503   0.7165   1.0000
   9.500   0.5362   0.11407   0.10247  -0.0526   0.7097   1.0000
   9.750   0.5340   0.11466   0.10313  -0.0513   0.7002   1.0000
  10.000   0.5686   0.11928   0.10785  -0.0541   0.6940   1.0000
  10.250   0.5632   0.11930   0.10795  -0.0525   0.6832   1.0000
  10.500   0.5768   0.12196   0.11071  -0.0532   0.6763   1.0000
  10.750   0.5952   0.12443   0.11330  -0.0541   0.6663   1.0000
  11.000   0.5978   0.12609   0.11504  -0.0538   0.6575   1.0000
  11.250   0.6317   0.13067   0.11974  -0.0563   0.6496   1.0000
  11.500   0.6262   0.13103   0.12020  -0.0552   0.6386   1.0000
  11.750   0.6358   0.13363   0.12290  -0.0558   0.6310   1.0000
  12.250   0.6599   0.13837   0.12786  -0.0570   0.6098   1.0000
  12.000   0.6644   0.13748   0.12689  -0.0577   0.6204   1.0000
  12.100   0.6557   0.13748   0.12690  -0.0570   0.6178   1.0000
  12.200   0.6552   0.13779   0.12725  -0.0568   0.6122   1.0000
  12.500   0.6700   0.14107   0.13067  -0.0577   0.6012   1.0000
  12.750   0.6980   0.14509   0.13489  -0.0596   0.5906   1.0000
  13.000   0.6989   0.14632   0.13622  -0.0595   0.5785   1.0000
  13.250   0.7025   0.14854   0.13855  -0.0599   0.5684   1.0000
  13.500   0.7163   0.15158   0.14171  -0.0609   0.5585   1.0000
  13.750   0.7353   0.15479   0.14510  -0.0621   0.5461   1.0000
  14.000   0.7516   0.15758   0.14803  -0.0629   0.5322   1.0000
  14.250   0.7648   0.16004   0.15064  -0.0636   0.5179   1.0000
  14.500   0.7962   0.15661   0.14740  -0.0615   0.4627   1.0000
  14.750   0.8270   0.15483   0.14581  -0.0599   0.4240   1.0000
  15.000   0.8649   0.15409   0.14531  -0.0590   0.3994   1.0000
  15.250   0.8716   0.15586   0.14724  -0.0591   0.3815   1.0000
  15.500   0.8863   0.15712   0.14867  -0.0590   0.3629   1.0000
  15.750   0.9288   0.15473   0.14658  -0.0570   0.3394   1.0000
  16.000   0.9316   0.15682   0.14880  -0.0571   0.3205   1.0000
  16.250   0.9771   0.15120   0.14356  -0.0534   0.2939   1.0000
  16.500   0.9803   0.15332   0.14580  -0.0533   0.2741   1.0000
  16.750   1.2707   0.09594   0.08798  -0.0281   0.1616   1.0000
  17.000   1.2791   0.09833   0.09038  -0.0272   0.1456   1.0000
  17.250   1.2923   0.10053   0.09261  -0.0264   0.1327   1.0000
  17.500   1.3036   0.10298   0.09507  -0.0257   0.1215   1.0000
  17.750   1.2937   0.10784   0.10026  -0.0258   0.1173   1.0000
  18.000   1.3062   0.11061   0.10308  -0.0253   0.1094   1.0000
  18.250   1.2819   0.11707   0.10986  -0.0264   0.1083   1.0000
  18.500   1.2548   0.12429   0.11739  -0.0282   0.1079   1.0000
  18.750   1.2270   0.13219   0.12555  -0.0308   0.1085   1.0000
  19.000   1.1955   0.14144   0.13499  -0.0345   0.1095   1.0000
  19.250   1.1666   0.15110   0.14478  -0.0389   0.1106   1.0000
  19.750   0.6660   0.19958   0.19345  -0.0650   0.2642   1.0000
  20.000   0.6775   0.20328   0.19725  -0.0656   0.2528   1.0000
  19.750   0.6660   0.19958   0.19346  -0.0650   0.2642   1.0000
  19.850   0.6637   0.20024   0.19413  -0.0657   0.2601   1.0000
  19.950   0.6685   0.20156   0.19549  -0.0659   0.2554   1.0000
  -0.250  -0.2725   0.05724   0.04610  -0.0320   0.9733   0.1279
  -0.500  -0.2976   0.05750   0.04679  -0.0323   0.9787   0.1225
  -0.750  -0.3294   0.05747   0.04714  -0.0317   0.9826   0.1217
  -0.500  -0.2976   0.05750   0.04679  -0.0323   0.9787   0.1225
  -0.600  -0.3102   0.05730   0.04670  -0.0320   0.9800   0.1225
  -0.700  -0.3231   0.05738   0.04696  -0.0318   0.9816   0.1218
  -1.000  -0.3563   0.05851   0.04857  -0.0317   0.9878   0.1227
  -1.250  -0.3876   0.05908   0.04962  -0.0310   0.9912   0.1234
  -1.500  -0.4161   0.06027   0.05127  -0.0303   0.9956   0.1245
  -1.750  -0.4505   0.06203   0.05384  -0.0294   0.9985   0.1358
  -2.750  -0.3562   0.10245   0.09859   0.0193   0.9871   0.6405
  -2.950  -0.4319   0.10407   0.09977   0.0343   1.0000   0.7231
  -3.750  -0.6125   0.10695   0.10283   0.0208   1.0000   0.4113
  -4.000  -0.6148   0.10886   0.10471   0.0161   1.0000   0.3809
  -4.250  -0.6128   0.11099   0.10679   0.0114   1.0000   0.3471
  -4.000  -0.6148   0.10886   0.10471   0.0161   1.0000   0.3809
  -4.100  -0.6215   0.10950   0.10533   0.0134   1.0000   0.3673
  -4.200  -0.6349   0.11019   0.10600   0.0093   1.0000   0.3533
  -4.500  -0.6097   0.11343   0.10921   0.0085   1.0000   0.3270
  -4.250  -0.4652   0.11318   0.10931   0.0084   1.0000   0.3809
  -4.350  -0.4884   0.11414   0.11031   0.0081   1.0000   0.3687
  -4.450  -0.4627   0.11495   0.11106   0.0063   1.0000   0.3649
  -4.750  -0.4848   0.11795   0.11406   0.0036   1.0000   0.3366
  -4.500  -0.6097   0.11343   0.10921   0.0085   1.0000   0.3270
  -4.600  -0.6132   0.11452   0.11028   0.0066   1.0000   0.3181
  -4.700  -0.6245   0.11517   0.11093   0.0034   1.0000   0.3063
  -5.000  -0.6277   0.11879   0.11450  -0.0003   1.0000   0.2885
  -4.750  -0.6350   0.11582   0.11154   0.0014   1.0000   0.3050
  -4.850  -0.6034   0.11737   0.11309   0.0046   1.0000   0.3011
  -4.950  -0.5979   0.11820   0.11391   0.0040   1.0000   0.2944
  -5.250  -0.5830   0.12157   0.11723   0.0019   1.0000   0.2803
  -5.500  -0.5732   0.12439   0.12001  -0.0007   1.0000   0.2678
  -5.750  -0.5857   0.12764   0.12325  -0.0032   1.0000   0.2550
  -6.000  -0.5416   0.12907   0.12456  -0.0055   1.0000   0.2505
  -6.250  -0.5576   0.13263   0.12814  -0.0076   1.0000   0.2390
  -6.500  -0.5192   0.13386   0.12926  -0.0091   1.0000   0.2342
  -6.750  -0.5424   0.13789   0.13333  -0.0114   1.0000   0.2233
  -7.000  -0.5040   0.13879   0.13412  -0.0121   1.0000   0.2198
  -7.250  -0.5056   0.14128   0.13661  -0.0139   1.0000   0.2105
  -7.500  -0.4963   0.14426   0.13952  -0.0150   1.0000   0.2058
  -7.750  -0.4772   0.14562   0.14082  -0.0154   1.0000   0.2003
  -8.000  -0.5076   0.15077   0.14600  -0.0183   1.0000   0.1916
  -8.250  -0.4725   0.15105   0.14618  -0.0178   1.0000   0.1893
  -8.500  -0.4585   0.15261   0.14768  -0.0182   1.0000   0.1830
  -8.750  -0.4914   0.15839   0.15351  -0.0214   1.0000   0.1757
  -9.000  -0.4617   0.15852   0.15355  -0.0207   1.0000   0.1743
  -9.250  -0.4422   0.15943   0.15438  -0.0205   1.0000   0.1691
  -9.500  -0.4433   0.16182   0.15676  -0.0218   1.0000   0.1635
  -9.750  -0.4633   0.16724   0.16219  -0.0241   1.0000   0.1595
 -10.000  -0.4396   0.16715   0.16202  -0.0233   1.0000   0.1581
 -10.250  -0.4243   0.16803   0.16284  -0.0232   1.0000   0.1534
 -10.500  -0.4225   0.17002   0.16482  -0.0240   1.0000   0.1491
 -11.000  -0.4305   0.17682   0.17157  -0.0264   1.0000   0.1431
 -11.250  -0.4130   0.17672   0.17140  -0.0259   1.0000   0.1408
 -11.500  -0.4054   0.17798   0.17262  -0.0261   1.0000   0.1370
 -11.750  -0.3958   0.17907   0.17366  -0.0287   0.9984   0.1342
 -12.000  -0.4350   0.18841   0.18309  -0.0302   1.0000   0.1282
 -12.250  -0.4141   0.18737   0.18196  -0.0302   0.9995   0.1276
 -12.500  -0.3965   0.18675   0.18128  -0.0308   0.9988   0.1267
 -12.750  -0.3848   0.18685   0.18132  -0.0308   0.9987   0.1243
 -13.000  -0.3828   0.18841   0.18286  -0.0304   0.9994   0.1204
 -13.250  -0.3864   0.19087   0.18531  -0.0306   1.0000   0.1165
 -13.500  -0.4106   0.19943   0.19388  -0.0333   1.0000   0.1125
 -13.750  -0.3931   0.19790   0.19228  -0.0329   1.0000   0.1119
 -14.000  -0.3826   0.19761   0.19194  -0.0329   1.0000   0.1113
 -14.250  -0.3717   0.19729   0.19155  -0.0329   1.0000   0.1086
 -14.500  -0.3671   0.19838   0.19262  -0.0335   1.0000   0.1056
 -14.750  -0.3644   0.19964   0.19386  -0.0342   1.0000   0.1040
 -15.000  -0.3631   0.20132   0.19551  -0.0353   1.0000   0.1015
 -15.250  -0.3662   0.20430   0.19848  -0.0369   1.0000   0.0991
 -15.000  -0.3631   0.20132   0.19551  -0.0353   1.0000   0.1015
 -15.100  -0.3637   0.20235   0.19654  -0.0359   1.0000   0.1004
 -15.200  -0.3646   0.20340   0.19758  -0.0365   1.0000   0.0996
 -15.500  -0.3839   0.21312   0.20728  -0.0391   1.0000   0.0973
 -15.750  -0.3702   0.21146   0.20555  -0.0395   1.0000   0.0970
 -16.000  -0.3551   0.20928   0.20329  -0.0397   1.0000   0.0964
 -16.250  -0.3445   0.20836   0.20231  -0.0404   1.0000   0.0954
 -16.500  -0.3363   0.20815   0.20205  -0.0414   1.0000   0.0940
 -16.750  -0.3288   0.20828   0.20212  -0.0428   1.0000   0.0921
 -17.000  -0.3214   0.20856   0.20233  -0.0446   1.0000   0.0904
 -17.250  -0.3131   0.20846   0.20218  -0.0468   1.0000   0.0892
 -17.500  -0.3029   0.20814   0.20177  -0.0497   1.0000   0.0877
 -17.750  -0.2891   0.20704   0.20058  -0.0537   1.0000   0.0867
 -18.000  -0.2744   0.20563   0.19904  -0.0580   1.0000   0.0858
 -18.250  -0.2746   0.20794   0.20124  -0.0602   1.0000   0.0840
 -18.500  -0.2940   0.21858   0.21181  -0.0614   1.0000   0.0825
 -18.750  -0.2877   0.21626   0.20936  -0.0601   1.0000   0.0823
 -19.000  -0.2858   0.21497   0.20798  -0.0584   1.0000   0.0818
 -19.250  -0.2865   0.21459   0.20751  -0.0564   1.0000   0.0808
 -19.500  -0.2908   0.21574   0.20858  -0.0545   1.0000   0.0788
 -19.750  -0.2974   0.21781   0.21061  -0.0528   1.0000   0.0769
 -20.000  -0.3050   0.22029   0.21304  -0.0513   1.0000   0.0748
