  
       XFOIL         Version 6.99
  
 Calculated polar for: MA409 (smoothed)                                
  
 1 1 Reynolds number fixed          Mach number fixed         
  
 xtrf =   1.000 (top)        1.000 (bottom)  
 Mach =   0.000     Re =     0.050 e 6     Ncrit =   9.000
  
   alpha    CL        CD       CDp       CM     Top_Xtr  Bot_Xtr
  ------ -------- --------- --------- -------- -------- --------
   0.000   0.2029   0.01849   0.00810  -0.0675   1.0000   1.0000
   0.250   0.2268   0.01887   0.00831  -0.0674   1.0000   1.0000
   0.500   0.2501   0.01929   0.00860  -0.0673   1.0000   1.0000
   0.750   0.2731   0.01976   0.00896  -0.0672   1.0000   1.0000
   1.000   0.2955   0.02027   0.00940  -0.0672   1.0000   1.0000
   1.250   0.3175   0.02085   0.00992  -0.0671   1.0000   1.0000
   1.500   0.3389   0.02148   0.01053  -0.0671   1.0000   1.0000
   1.750   0.3598   0.02219   0.01123  -0.0672   1.0000   1.0000
   2.000   0.3800   0.02298   0.01203  -0.0673   1.0000   1.0000
   2.250   0.3995   0.02387   0.01297  -0.0674   1.0000   1.0000
   2.500   0.4181   0.02486   0.01401  -0.0676   1.0000   1.0000
   2.750   0.4359   0.02597   0.01519  -0.0679   1.0000   1.0000
   3.000   0.4771   0.02734   0.01669  -0.0728   0.9876   1.0000
   3.250   0.5384   0.02858   0.01817  -0.0806   0.9625   1.0000
   3.500   0.5956   0.02947   0.01930  -0.0871   0.9363   1.0000
   3.750   0.6498   0.03002   0.02014  -0.0923   0.9090   1.0000
   4.000   0.7019   0.03022   0.02072  -0.0964   0.8807   1.0000
   4.250   0.7538   0.03002   0.02089  -0.0995   0.8519   1.0000
   4.500   0.8081   0.02925   0.02062  -0.1019   0.8228   1.0000
   4.750   0.8603   0.02796   0.01981  -0.1028   0.7929   1.0000
   5.000   0.9021   0.02672   0.01900  -0.1014   0.7572   1.0000
   5.250   0.9433   0.02353   0.01606  -0.0957   0.6953   1.0000
   5.500   0.9612   0.02211   0.01453  -0.0884   0.6076   1.0000
   5.750   0.9687   0.02227   0.01426  -0.0815   0.4856   1.0000
   6.000   0.9556   0.02577   0.01556  -0.0734   0.2304   1.0000
   6.250   0.9704   0.02917   0.01807  -0.0709   0.1515   1.0000
   6.500   0.9980   0.03182   0.02054  -0.0698   0.1258   1.0000
   6.750   1.0278   0.03450   0.02310  -0.0693   0.1096   1.0000
   7.000   1.0588   0.03749   0.02641  -0.0687   0.1010   1.0000
   7.250   1.0882   0.04088   0.03003  -0.0680   0.0969   1.0000
   7.500   1.1127   0.04495   0.03437  -0.0671   0.0941   1.0000
   7.750   1.1287   0.04830   0.03845  -0.0648   0.0917   1.0000
   8.000   1.1422   0.05222   0.04297  -0.0626   0.0905   1.0000
   8.250   1.1535   0.05678   0.04803  -0.0605   0.0918   1.0000
   8.500   1.1638   0.06178   0.05339  -0.0588   0.0936   1.0000
   8.750   1.1591   0.06642   0.05884  -0.0557   0.0975   1.0000
   9.000   1.1454   0.07216   0.06518  -0.0533   0.1021   1.0000
   9.250   1.1437   0.07780   0.07102  -0.0520   0.1059   1.0000
   9.500   1.1211   0.08315   0.07679  -0.0505   0.1106   1.0000
   9.750   1.0859   0.08866   0.08253  -0.0499   0.1133   1.0000
  10.000   1.0578   0.09482   0.08877  -0.0512   0.1161   1.0000
  10.250   1.0456   0.10174   0.09577  -0.0535   0.1228   1.0000
  10.500   0.9971   0.11427   0.10823  -0.0657   0.1283   1.0000
  10.750   0.8381   0.11314   0.10723  -0.0515   0.1317   1.0000
  10.750   0.8381   0.11314   0.10723  -0.0515   0.1317   1.0000
  10.850   0.8425   0.11494   0.10904  -0.0510   0.1333   1.0000
  10.950   0.8504   0.11643   0.11060  -0.0499   0.1342   1.0000
  11.000   0.9256   0.14665   0.14032  -0.0974   0.2765   1.0000
  11.100   0.9276   0.14863   0.14231  -0.0977   0.2754   1.0000
  11.200   0.9319   0.15074   0.14443  -0.0978   0.2740   1.0000
  11.500   0.9259   0.15580   0.14943  -0.0996   0.2667   1.0000
  11.750   0.9502   0.16199   0.15568  -0.0980   0.2576   1.0000
  12.000   0.9305   0.16410   0.15770  -0.1011   0.2497   1.0000
  12.250   0.9404   0.16907   0.16267  -0.1011   0.2420   1.0000
  12.500   0.9444   0.17285   0.16646  -0.1017   0.2322   1.0000
  12.750   0.9433   0.17693   0.17049  -0.1035   0.2271   1.0000
  13.000   0.9493   0.18089   0.17450  -0.1042   0.2189   1.0000
  13.250   0.9541   0.18556   0.17915  -0.1054   0.2144   1.0000
  13.500   0.9546   0.18852   0.18210  -0.1070   0.2062   1.0000
  13.750   0.9678   0.19443   0.18801  -0.1072   0.2015   1.0000
  14.000   0.9617   0.19606   0.18960  -0.1099   0.1941   1.0000
  14.250   0.9828   0.20344   0.19702  -0.1090   0.1882   1.0000
  14.500   0.9718   0.20370   0.19721  -0.1129   0.1826   1.0000
  14.750   0.9946   0.21151   0.20507  -0.1114   0.1747   1.0000
  15.000   0.9837   0.21125   0.20474  -0.1158   0.1701   1.0000
  15.250   1.0088   0.21993   0.21348  -0.1137   0.1612   1.0000
  15.500   0.9972   0.21889   0.21236  -0.1186   0.1580   1.0000
  15.750   1.0055   0.22258   0.21606  -0.1197   0.1507   1.0000
  16.000   1.0192   0.22913   0.22263  -0.1199   0.1471   1.0000
  16.250   1.0154   0.22942   0.22286  -0.1242   0.1426   1.0000
  16.500   1.0256   0.23363   0.22709  -0.1250   0.1370   1.0000
  16.750   1.0401   0.24086   0.23439  -0.1249   0.1339   1.0000
  17.000   1.0366   0.24044   0.23392  -0.1296   0.1304   1.0000
  17.250   1.0442   0.24380   0.23729  -0.1314   0.1252   1.0000
  17.500   1.0672   0.25492   0.24846  -0.1290   0.1209   1.0000
  17.750   1.0614   0.25254   0.24602  -0.1344   0.1194   1.0000
  18.000   1.0650   0.25424   0.24770  -0.1378   0.1152   1.0000
  18.250   1.0746   0.25821   0.25169  -0.1390   0.1107   1.0000
  18.500   1.0914   0.26762   0.26113  -0.1379   0.1075   1.0000
  18.750   1.0895   0.26577   0.25923  -0.1431   0.1057   1.0000
  19.000   1.0951   0.26786   0.26131  -0.1461   0.1013   1.0000
  19.250   1.1056   0.27233   0.26582  -0.1469   0.0968   1.0000
  19.500   1.1196   0.28114   0.27464  -0.1465   0.0943   1.0000
  19.750   1.1200   0.27947   0.27293  -0.1515   0.0929   1.0000
  20.000   1.1258   0.28134   0.27480  -0.1548   0.0897   1.0000
   0.000   0.2029   0.01849   0.00810  -0.0675   1.0000   1.0000
  -0.250   0.1786   0.01814   0.00799  -0.0675   1.0000   1.0000
  -0.500   0.1538   0.01783   0.00795  -0.0675   1.0000   1.0000
  -0.750   0.1281   0.01755   0.00802  -0.0674   1.0000   1.0000
  -1.000   0.0995   0.01729   0.00834  -0.0666   1.0000   1.0000
  -1.250   0.0877   0.01862   0.00914  -0.0703   1.0000   0.6356
  -1.500   0.0615   0.02006   0.00989  -0.0713   1.0000   0.5020
  -1.750   0.0330   0.02106   0.01068  -0.0715   1.0000   0.4178
  -2.000   0.0045   0.02192   0.01147  -0.0716   1.0000   0.3484
  -2.250  -0.0228   0.02286   0.01232  -0.0719   1.0000   0.2881
  -2.500  -0.0508   0.02396   0.01344  -0.0719   1.0000   0.2352
  -2.750  -0.0807   0.02550   0.01519  -0.0717   1.0000   0.1973
  -3.000  -0.1112   0.02744   0.01736  -0.0711   1.0000   0.1730
  -3.250  -0.1418   0.02945   0.01975  -0.0704   1.0000   0.1520
  -3.500  -0.1755   0.03270   0.02355  -0.0686   1.0000   0.1449
  -3.750  -0.2116   0.03670   0.02829  -0.0655   1.0000   0.1399
  -4.000  -0.2351   0.03955   0.03119  -0.0653   1.0000   0.1336
  -4.000  -0.2475   0.04167   0.03392  -0.0613   1.0000   0.1410
  -4.100  -0.2601   0.04379   0.03619  -0.0599   1.0000   0.1450
  -4.200  -0.2698   0.04542   0.03786  -0.0596   1.0000   0.1486
  -4.350  -0.3762   0.06356   0.05754  -0.0114   1.0000   0.3651
  -4.450  -0.3797   0.06514   0.05913  -0.0138   1.0000   0.3614
  -4.750  -0.3892   0.06852   0.06248  -0.0140   1.0000   0.3342
  -5.000  -0.3945   0.07132   0.06523  -0.0134   1.0000   0.3131
  -5.250  -0.4005   0.07414   0.06800  -0.0147   1.0000   0.2937
  -5.500  -0.4074   0.07731   0.07113  -0.0171   1.0000   0.2770
  -5.750  -0.4124   0.08028   0.07404  -0.0176   1.0000   0.2627
  -6.000  -0.4133   0.08279   0.07648  -0.0162   1.0000   0.2506
  -6.250  -0.4142   0.08563   0.07923  -0.0157   1.0000   0.2416
  -6.500  -0.4299   0.09061   0.08422  -0.0205   1.0000   0.2327
  -6.500  -0.4299   0.09061   0.08422  -0.0205   1.0000   0.2327
  -6.600  -0.4197   0.09005   0.08355  -0.0165   1.0000   0.2302
  -6.700  -0.4165   0.09056   0.08401  -0.0158   1.0000   0.2258
  -7.000  -0.4271   0.09532   0.08873  -0.0177   1.0000   0.2173
  -7.250  -0.4172   0.09643   0.08970  -0.0169   1.0000   0.2095
  -7.500  -0.4300   0.10114   0.09439  -0.0182   1.0000   0.2033
  -7.750  -0.4145   0.10152   0.09460  -0.0180   1.0000   0.1975
  -8.000  -0.4371   0.10771   0.10087  -0.0197   1.0000   0.1897
  -8.250  -0.4190   0.10741   0.10039  -0.0183   1.0000   0.1861
  -8.500  -0.4449   0.11435   0.10740  -0.0205   1.0000   0.1758
  -8.750  -0.4280   0.11393   0.10680  -0.0183   1.0000   0.1739
  -9.000  -0.4275   0.11595   0.10876  -0.0175   1.0000   0.1665
  -9.250  -0.4399   0.12099   0.11378  -0.0183   1.0000   0.1608
  -9.500  -0.4332   0.12191   0.11461  -0.0163   1.0000   0.1559
  -9.750  -0.4553   0.12857   0.12133  -0.0183   1.0000   0.1483
 -10.000  -0.4497   0.13006   0.12271  -0.0163   1.0000   0.1466
 -10.250  -0.4455   0.13125   0.12382  -0.0143   1.0000   0.1424
 -10.500  -0.4528   0.13471   0.12727  -0.0140   1.0000   0.1371
 -10.750  -0.4710   0.14178   0.13435  -0.0151   1.0000   0.1335
 -11.000  -0.4625   0.14169   0.13417  -0.0125   1.0000   0.1316
 -11.250  -0.4635   0.14380   0.13625  -0.0110   1.0000   0.1273
 -11.500  -0.4718   0.14753   0.13997  -0.0107   1.0000   0.1229
 -11.750  -0.4917   0.15560   0.14810  -0.0117   1.0000   0.1196
 -12.000  -0.4845   0.15528   0.14770  -0.0091   1.0000   0.1185
 -12.250  -0.4844   0.15676   0.14914  -0.0072   1.0000   0.1153
 -12.500  -0.4900   0.15981   0.15217  -0.0062   1.0000   0.1114
 -12.750  -0.5031   0.16512   0.15751  -0.0065   1.0000   0.1074
 -13.000  -0.5135   0.17082   0.16318  -0.0060   1.0000   0.1056
 -13.250  -0.5099   0.17066   0.16295  -0.0034   1.0000   0.1042
 -13.500  -0.5129   0.17259   0.16486  -0.0017   1.0000   0.1007
 -13.750  -0.5200   0.17584   0.16810  -0.0007   1.0000   0.0968
 -14.000  -0.5462   0.18766   0.17997  -0.0026   1.0000   0.0924
 -14.250  -0.5420   0.18672   0.17897   0.0001   1.0000   0.0919
 -14.500  -0.5413   0.18668   0.17888   0.0026   1.0000   0.0907
 -14.750  -0.5457   0.18859   0.18077   0.0046   1.0000   0.0882
 -15.000  -0.5524   0.19151   0.18368   0.0060   1.0000   0.0854
 -15.250  -0.5605   0.19495   0.18712   0.0071   1.0000   0.0827
 -15.500  -0.5722   0.20036   0.19254   0.0074   1.0000   0.0802
 -15.750  -0.5880   0.20943   0.20167   0.0074   1.0000   0.0788
 -16.000  -0.5879   0.20858   0.20077   0.0101   1.0000   0.0783
 -16.250  -0.5909   0.20888   0.20104   0.0127   1.0000   0.0773
 -16.500  -0.5969   0.21080   0.20294   0.0148   1.0000   0.0754
 -16.750  -0.6044   0.21359   0.20572   0.0166   1.0000   0.0732
 -17.000  -0.6124   0.21670   0.20883   0.0181   1.0000   0.0710
 -17.250  -0.6211   0.22019   0.21233   0.0195   1.0000   0.0690
 -17.500  -0.6315   0.22511   0.21726   0.0202   1.0000   0.0671
 -17.750  -0.6499   0.23792   0.23008   0.0196   1.0000   0.0656
 -18.000  -0.6516   0.23639   0.22852   0.0225   1.0000   0.0654
 -18.250  -0.6552   0.23562   0.22772   0.0254   1.0000   0.0648
 -18.500  -0.6612   0.23636   0.22845   0.0281   1.0000   0.0637
 -18.750  -0.6688   0.23855   0.23062   0.0303   1.0000   0.0618
 -19.000  -0.6770   0.24134   0.23342   0.0322   1.0000   0.0598
 -19.250  -0.6855   0.24438   0.23646   0.0340   1.0000   0.0579
 -19.500  -0.6942   0.24772   0.23986   0.0356   1.0000   0.0561
 -19.750  -0.7035   0.25195   0.24410   0.0368   1.0000   0.0545
 -20.000  -0.7179   0.26324   0.25545   0.0365   1.0000   0.0531
