  
       XFOIL         Version 6.99
  
 Calculated polar for: S1046 17% (Danny Howell)                        
  
 1 1 Reynolds number fixed          Mach number fixed         
  
 xtrf =   1.000 (top)        1.000 (bottom)  
 Mach =   0.000     Re =     0.050 e 6     Ncrit =   9.000
  
   alpha    CL        CD       CDp       CM     Top_Xtr  Bot_Xtr
  ------ -------- --------- --------- -------- -------- --------
   0.000   0.0000   0.03969   0.03062  -0.0000   0.8114   0.8114
   0.250   0.0464   0.03965   0.03058  -0.0031   0.7969   0.8260
   0.500   0.0955   0.03956   0.03049  -0.0064   0.7828   0.8409
   0.750   0.1500   0.03932   0.03025  -0.0105   0.7690   0.8557
   1.000   0.2282   0.03886   0.02981  -0.0179   0.7543   0.8689
   1.250   0.2746   0.03873   0.02971  -0.0212   0.7388   0.8827
   1.500   0.3118   0.03876   0.02978  -0.0234   0.7234   0.8969
   1.750   0.3490   0.03879   0.02986  -0.0256   0.7080   0.9114
   2.000   0.3872   0.03884   0.02995  -0.0281   0.6929   0.9262
   2.000   0.3872   0.03884   0.02995  -0.0281   0.6929   0.9262
   2.100   0.4122   0.03842   0.02951  -0.0299   0.6884   0.9320
   2.200   0.4153   0.03888   0.03001  -0.0297   0.6817   0.9384
   2.500   0.4706   0.03877   0.02998  -0.0344   0.6633   0.9556
   2.750   0.5172   0.03855   0.02982  -0.0383   0.6489   0.9701
   3.000   0.5683   0.03810   0.02941  -0.0428   0.6344   0.9846
   3.250   0.6219   0.03747   0.02884  -0.0478   0.6201   0.9991
   3.500   0.6268   0.03855   0.03001  -0.0465   0.6065   1.0000
   3.750   0.6275   0.03976   0.03128  -0.0446   0.5947   1.0000
   4.000   0.6430   0.03955   0.03103  -0.0424   0.5860   1.0000
   4.250   0.6364   0.04118   0.03275  -0.0399   0.5737   1.0000
   4.500   0.6256   0.04297   0.03459  -0.0369   0.5631   1.0000
   4.750   0.6418   0.04271   0.03433  -0.0346   0.5547   1.0000
   5.000   0.5977   0.04618   0.03782  -0.0295   0.5441   1.0000
   5.250   0.6201   0.04557   0.03721  -0.0273   0.5361   1.0000
   5.500   0.5041   0.05125   0.04273  -0.0166   0.5297   1.0000
   5.750   0.5727   0.04909   0.04065  -0.0173   0.5204   1.0000
   6.000   0.4410   0.05607   0.04725  -0.0071   0.5152   1.0000
   6.250   0.5159   0.05433   0.04567  -0.0085   0.5040   1.0000
   6.500   0.4298   0.06079   0.05185  -0.0038   0.4984   1.0000
   6.750   0.4801   0.06033   0.05148  -0.0036   0.4874   1.0000
   7.000   0.4304   0.06568   0.05668  -0.0022   0.4815   1.0000
   7.250   0.4734   0.06583   0.05693  -0.0017   0.4708   1.0000
   7.500   0.4360   0.07086   0.06187  -0.0014   0.4662   1.0000
   7.750   0.4727   0.07140   0.06248  -0.0008   0.4542   1.0000
   8.000   0.4464   0.07617   0.06719  -0.0012   0.4515   1.0000
   8.250   0.4351   0.07997   0.07098  -0.0016   0.4479   1.0000
   8.500   0.4593   0.08160   0.07267  -0.0012   0.4365   1.0000
   8.750   0.4515   0.08576   0.07683  -0.0021   0.4362   1.0000
   9.000   0.4482   0.08975   0.08085  -0.0031   0.4365   1.0000
   9.250   0.4575   0.09380   0.08496  -0.0043   0.4389   1.0000
   9.250   0.4756   0.09142   0.08260  -0.0025   0.4226   1.0000
   9.750   0.3943   0.10569   0.09683  -0.0105   0.5065   1.0000
   9.850   0.4057   0.10771   0.09888  -0.0111   0.5035   1.0000
   9.950   0.3912   0.10747   0.09861  -0.0104   0.4985   1.0000
  10.250   0.4164   0.11199   0.10322  -0.0113   0.4866   1.0000
  10.500   0.4239   0.11429   0.10556  -0.0113   0.4733   1.0000
  10.750   0.4199   0.11639   0.10766  -0.0113   0.4622   1.0000
  11.000   0.4407   0.12054   0.11188  -0.0121   0.4535   1.0000
  11.250   0.4485   0.12302   0.11441  -0.0122   0.4407   1.0000
  11.500   0.4447   0.12530   0.11670  -0.0125   0.4307   1.0000
  11.750   0.4695   0.12995   0.12144  -0.0133   0.4213   1.0000
  12.000   0.4677   0.13173   0.12324  -0.0135   0.4094   1.0000
  12.250   0.4694   0.13461   0.12614  -0.0141   0.4002   1.0000
  12.500   0.5026   0.14027   0.13190  -0.0147   0.3896   1.0000
  12.750   0.4850   0.14073   0.13234  -0.0153   0.3800   1.0000
  13.000   0.5008   0.14499   0.13666  -0.0159   0.3717   1.0000
  13.250   0.5099   0.14780   0.13953  -0.0164   0.3597   1.0000
  13.500   0.5085   0.15066   0.14240  -0.0175   0.3532   1.0000
  13.750   0.5417   0.15685   0.14870  -0.0178   0.3413   1.0000
  14.000   0.5214   0.15670   0.14852  -0.0192   0.3336   1.0000
  14.250   0.5492   0.16279   0.15469  -0.0195   0.3249   1.0000
  14.500   0.5378   0.16322   0.15511  -0.0209   0.3152   1.0000
  14.750   0.5557   0.16840   0.16035  -0.0216   0.3083   1.0000
  15.000   0.5553   0.17003   0.16200  -0.0227   0.2975   1.0000
  15.250   0.5637   0.17402   0.16602  -0.0239   0.2912   1.0000
  15.500   0.5762   0.17746   0.16951  -0.0245   0.2799   1.0000
  15.750   0.5750   0.18009   0.17213  -0.0262   0.2738   1.0000
  16.000   0.6067   0.18763   0.17977  -0.0259   0.2622   1.0000
  16.250   0.5884   0.18644   0.17852  -0.0287   0.2566   1.0000
  16.500   0.6200   0.19437   0.18654  -0.0282   0.2467   1.0000
  16.750   0.6034   0.19310   0.18521  -0.0312   0.2412   1.0000
  17.000   0.6359   0.20162   0.19384  -0.0305   0.2314   1.0000
  17.250   0.6195   0.20000   0.19215  -0.0339   0.2273   1.0000
  17.500   0.6345   0.20409   0.19629  -0.0344   0.2181   1.0000
  17.750   0.6412   0.20809   0.20027  -0.0361   0.2148   1.0000
  18.000   0.6424   0.20949   0.20166  -0.0382   0.2063   1.0000
  18.250   0.6671   0.21743   0.20965  -0.0379   0.2009   1.0000
  18.500   0.6572   0.21626   0.20842  -0.0414   0.1966   1.0000
  18.750   0.6683   0.21965   0.21183  -0.0424   0.1894   1.0000
  19.000   0.6837   0.22565   0.21785  -0.0431   0.1856   1.0000
  19.250   0.6802   0.22567   0.21784  -0.0463   0.1805   1.0000
  19.500   0.6917   0.22924   0.22144  -0.0474   0.1748   1.0000
  19.750   0.7095   0.23623   0.22844  -0.0477   0.1712   1.0000
  20.000   0.7044   0.23527   0.22743  -0.0513   0.1670   1.0000
   0.000   0.0000   0.03969   0.03062  -0.0000   0.8114   0.8114
  -0.250  -0.0471   0.03965   0.03058   0.0031   0.8261   0.7968
  -0.500  -0.0953   0.03957   0.03050   0.0064   0.8409   0.7829
  -0.750  -0.1502   0.03932   0.03026   0.0105   0.8557   0.7689
  -1.000  -0.2288   0.03886   0.02981   0.0180   0.8688   0.7544
  -1.250  -0.2746   0.03873   0.02971   0.0212   0.8827   0.7388
  -1.500  -0.3123   0.03876   0.02978   0.0234   0.8970   0.7233
  -1.750  -0.3493   0.03879   0.02986   0.0257   0.9115   0.7080
  -2.000  -0.3875   0.03885   0.02996   0.0282   0.9262   0.6929
  -2.250  -0.4273   0.03885   0.03001   0.0310   0.9409   0.6780
  -2.500  -0.4706   0.03878   0.02999   0.0344   0.9556   0.6634
  -2.750  -0.5174   0.03856   0.02983   0.0384   0.9702   0.6488
  -3.000  -0.5684   0.03810   0.02941   0.0428   0.9845   0.6345
  -3.250  -0.6217   0.03749   0.02886   0.0477   0.9990   0.6201
  -3.250  -0.6217   0.03749   0.02886   0.0477   0.9990   0.6201
  -3.350  -0.6201   0.03849   0.02994   0.0478   1.0000   0.6128
  -3.450  -0.6235   0.03865   0.03011   0.0470   1.0000   0.6083
  -3.750  -0.6275   0.03978   0.03130   0.0446   1.0000   0.5947
  -4.000  -0.6431   0.03957   0.03106   0.0424   1.0000   0.5860
  -4.250  -0.6365   0.04119   0.03276   0.0399   1.0000   0.5737
  -4.500  -0.6258   0.04296   0.03458   0.0369   1.0000   0.5630
  -4.750  -0.6424   0.04268   0.03429   0.0346   1.0000   0.5547
  -5.000  -0.5988   0.04612   0.03776   0.0296   1.0000   0.5439
  -5.250  -0.6212   0.04553   0.03717   0.0273   1.0000   0.5362
  -5.500  -0.5040   0.05126   0.04275   0.0166   1.0000   0.5296
  -5.750  -0.5732   0.04909   0.04066   0.0174   1.0000   0.5204
  -6.000  -0.4406   0.05610   0.04727   0.0071   1.0000   0.5153
  -6.250  -0.5162   0.05432   0.04566   0.0085   1.0000   0.5041
  -6.500  -0.4294   0.06081   0.05187   0.0038   1.0000   0.4984
  -6.750  -0.4800   0.06034   0.05150   0.0036   1.0000   0.4874
  -7.000  -0.4299   0.06570   0.05670   0.0021   1.0000   0.4815
  -7.250  -0.4717   0.06592   0.05701   0.0017   1.0000   0.4708
  -7.500  -0.4353   0.07088   0.06188   0.0014   1.0000   0.4661
  -7.750  -0.4732   0.07138   0.06246   0.0007   1.0000   0.4543
  -8.000  -0.4459   0.07620   0.06722   0.0011   1.0000   0.4516
  -8.250  -0.4342   0.08003   0.07104   0.0015   1.0000   0.4482
  -8.500  -0.4592   0.08162   0.07269   0.0011   1.0000   0.4366
  -8.750  -0.4503   0.08578   0.07685   0.0020   1.0000   0.4361
  -9.000  -0.4485   0.08977   0.08086   0.0030   1.0000   0.4368
  -9.250  -0.4572   0.09381   0.08498   0.0042   1.0000   0.4389
  -9.250  -0.4757   0.09137   0.08254   0.0024   1.0000   0.4220
 -10.500  -0.4231   0.11432   0.10559   0.0112   1.0000   0.4732
 -10.750  -0.4190   0.11639   0.10767   0.0111   1.0000   0.4621
 -11.000  -0.4398   0.12055   0.11190   0.0119   1.0000   0.4535
 -11.250  -0.4486   0.12309   0.11448   0.0121   1.0000   0.4405
 -11.500  -0.4436   0.12528   0.11668   0.0123   1.0000   0.4306
 -11.750  -0.4680   0.12991   0.12139   0.0131   1.0000   0.4213
 -12.000  -0.4661   0.13168   0.12318   0.0133   1.0000   0.4095
 -12.250  -0.4684   0.13462   0.12615   0.0139   1.0000   0.4004
 -12.500  -0.5019   0.14027   0.13191   0.0146   1.0000   0.3896
 -12.750  -0.4837   0.14069   0.13231   0.0151   1.0000   0.3801
 -13.000  -0.5011   0.14513   0.13680   0.0158   1.0000   0.3720
 -13.250  -0.5077   0.14765   0.13938   0.0163   1.0000   0.3599
 -13.500  -0.5075   0.15062   0.14236   0.0173   1.0000   0.3533
 -13.750  -0.5416   0.15692   0.14877   0.0176   1.0000   0.3414
 -14.000  -0.5202   0.15663   0.14844   0.0190   1.0000   0.3337
 -14.250  -0.5488   0.16280   0.15471   0.0193   1.0000   0.3250
 -14.500  -0.5360   0.16310   0.15499   0.0208   1.0000   0.3156
 -14.750  -0.5554   0.16841   0.16036   0.0214   1.0000   0.3084
 -15.000  -0.5529   0.16980   0.16177   0.0226   1.0000   0.2980
 -15.250  -0.5627   0.17390   0.16590   0.0236   1.0000   0.2912
 -15.500  -0.5726   0.17695   0.16900   0.0244   1.0000   0.2804
 -15.750  -0.5740   0.17993   0.17198   0.0260   1.0000   0.2739
 -16.000  -0.6069   0.18768   0.17983   0.0256   1.0000   0.2623
 -16.250  -0.5874   0.18627   0.17835   0.0285   1.0000   0.2569
 -16.500  -0.6188   0.19415   0.18633   0.0280   1.0000   0.2467
 -16.750  -0.6022   0.19284   0.18495   0.0310   1.0000   0.2412
 -17.000  -0.6357   0.20155   0.19377   0.0302   1.0000   0.2314
 -17.250  -0.6183   0.19969   0.19184   0.0337   1.0000   0.2272
 -17.500  -0.6322   0.20353   0.19571   0.0343   1.0000   0.2184
 -17.750  -0.6391   0.20753   0.19970   0.0359   1.0000   0.2146
 -18.000  -0.6409   0.20908   0.20125   0.0380   1.0000   0.2066
 -18.250  -0.6665   0.21713   0.20936   0.0376   1.0000   0.2009
 -18.500  -0.6562   0.21586   0.20802   0.0411   1.0000   0.1969
 -18.750  -0.6668   0.21913   0.21131   0.0423   1.0000   0.1896
 -19.000  -0.6839   0.22552   0.21774   0.0428   1.0000   0.1857
 -19.250  -0.6790   0.22512   0.21728   0.0460   1.0000   0.1809
 -19.500  -0.6898   0.22851   0.22070   0.0472   1.0000   0.1751
 -19.750  -0.7103   0.23624   0.22846   0.0473   1.0000   0.1713
 -20.000  -0.7032   0.23465   0.22681   0.0510   1.0000   0.1673
