  
       XFOIL         Version 6.99
  
 Calculated polar for: N-9                                             
  
 1 1 Reynolds number fixed          Mach number fixed         
  
 xtrf =   1.000 (top)        1.000 (bottom)  
 Mach =   0.000     Re =     0.050 e 6     Ncrit =   9.000
  
   alpha    CL        CD       CDp       CM     Top_Xtr  Bot_Xtr
  ------ -------- --------- --------- -------- -------- --------
   0.000   0.1849   0.02269   0.01214  -0.0315   1.0000   1.0000
   0.250   0.2443   0.02373   0.01312  -0.0390   0.9832   1.0000
   0.500   0.3005   0.02454   0.01394  -0.0456   0.9625   1.0000
   0.750   0.3570   0.02524   0.01466  -0.0519   0.9415   1.0000
   1.000   0.4135   0.02575   0.01526  -0.0577   0.9192   1.0000
   1.250   0.4644   0.02617   0.01578  -0.0621   0.8953   1.0000
   1.500   0.5252   0.02625   0.01602  -0.0676   0.8726   1.0000
   1.750   0.5691   0.02637   0.01630  -0.0699   0.8466   1.0000
   2.000   0.6086   0.02642   0.01650  -0.0710   0.8200   1.0000
   2.250   0.6472   0.02634   0.01654  -0.0715   0.7941   1.0000
   2.500   0.6857   0.02591   0.01627  -0.0712   0.7683   1.0000
   2.750   0.7215   0.02525   0.01569  -0.0698   0.7413   1.0000
   3.000   0.7521   0.02480   0.01527  -0.0677   0.7127   1.0000
   3.250   0.7785   0.02466   0.01518  -0.0653   0.6830   1.0000
   3.500   0.8032   0.02466   0.01519  -0.0630   0.6530   1.0000
   3.750   0.8259   0.02468   0.01523  -0.0605   0.6209   1.0000
   4.000   0.8488   0.02478   0.01541  -0.0583   0.5903   1.0000
   4.250   0.8711   0.02490   0.01559  -0.0561   0.5581   1.0000
   4.500   0.8934   0.02478   0.01543  -0.0535   0.5207   1.0000
   4.750   0.9130   0.02484   0.01537  -0.0506   0.4725   1.0000
   5.000   0.9306   0.02557   0.01575  -0.0474   0.4077   1.0000
   5.250   0.9489   0.02718   0.01684  -0.0450   0.3457   1.0000
   5.500   0.9699   0.02891   0.01840  -0.0436   0.3070   1.0000
   5.750   0.9930   0.03052   0.01993  -0.0426   0.2815   1.0000
   6.000   1.0147   0.03202   0.02153  -0.0415   0.2599   1.0000
   6.250   1.0380   0.03370   0.02332  -0.0407   0.2434   1.0000
   6.500   1.0605   0.03527   0.02489  -0.0397   0.2270   1.0000
   6.750   1.0823   0.03717   0.02691  -0.0388   0.2125   1.0000
   7.000   1.1013   0.03914   0.02908  -0.0375   0.1971   1.0000
   7.250   1.1184   0.04145   0.03162  -0.0360   0.1822   1.0000
   7.500   1.1325   0.04389   0.03435  -0.0343   0.1665   1.0000
   7.750   1.1451   0.04671   0.03740  -0.0326   0.1521   1.0000
   8.000   1.1564   0.05005   0.04093  -0.0309   0.1400   1.0000
   8.250   1.1730   0.05392   0.04475  -0.0299   0.1295   1.0000
   8.500   1.1636   0.05838   0.05003  -0.0268   0.1263   1.0000
   8.750   1.1538   0.06303   0.05521  -0.0244   0.1232   1.0000
   9.000   1.1437   0.06763   0.06016  -0.0225   0.1207   1.0000
   9.250   1.1214   0.07297   0.06584  -0.0207   0.1213   1.0000
   9.500   1.0879   0.07870   0.07182  -0.0194   0.1242   1.0000
   9.750   1.0591   0.08491   0.07815  -0.0200   0.1266   1.0000
  10.000   1.0357   0.09177   0.08508  -0.0222   0.1283   1.0000
  10.250   1.0178   0.09910   0.09243  -0.0249   0.1294   1.0000
  10.250   1.0155   0.09940   0.09276  -0.0253   0.1300   1.0000
  11.250   0.6432   0.14727   0.14029  -0.0505   0.3100   1.0000
  11.000   0.6736   0.14817   0.14123  -0.0505   0.3136   1.0000
  11.100   0.6616   0.14801   0.14105  -0.0506   0.3129   1.0000
  11.200   0.6489   0.14751   0.14054  -0.0506   0.3115   1.0000
  11.500   0.6636   0.15315   0.14626  -0.0506   0.2984   1.0000
  11.250   0.6432   0.14727   0.14029  -0.0505   0.3100   1.0000
  11.350   0.6397   0.14766   0.14070  -0.0504   0.3050   1.0000
  11.450   0.6704   0.15356   0.14667  -0.0506   0.2987   1.0000
  11.750   0.6376   0.15188   0.14496  -0.0505   0.2926   1.0000
  12.000   0.6469   0.15600   0.14914  -0.0505   0.2822   1.0000
  12.250   0.6522   0.15909   0.15228  -0.0505   0.2708   1.0000
  12.500   0.6416   0.16041   0.15359  -0.0511   0.2660   1.0000
  12.750   0.6581   0.16586   0.15910  -0.0510   0.2543   1.0000
  13.000   0.6411   0.16512   0.15835  -0.0519   0.2474   1.0000
  13.250   0.6556   0.17048   0.16376  -0.0519   0.2396   1.0000
  13.500   0.6445   0.17057   0.16385  -0.0528   0.2322   1.0000
  13.750   0.6547   0.17511   0.16841  -0.0530   0.2249   1.0000
  14.000   0.6522   0.17642   0.16974  -0.0536   0.2153   1.0000
  14.250   0.6536   0.17939   0.17274  -0.0544   0.2095   1.0000
  14.500   0.6566   0.18187   0.17525  -0.0549   0.2011   1.0000
  14.750   0.6618   0.18573   0.17912  -0.0555   0.1968   1.0000
  15.000   0.6581   0.18687   0.18028  -0.0566   0.1891   1.0000
  15.250   0.6683   0.19158   0.18500  -0.0568   0.1833   1.0000
  15.500   0.6626   0.19223   0.18567  -0.0581   0.1762   1.0000
  15.750   0.6783   0.19834   0.19181  -0.0579   0.1702   1.0000
  16.000   0.6677   0.19792   0.19139  -0.0598   0.1659   1.0000
  16.250   0.6737   0.20112   0.19461  -0.0603   0.1597   1.0000
  16.500   0.6832   0.20625   0.19976  -0.0607   0.1563   1.0000
  16.750   0.6755   0.20636   0.19987  -0.0626   0.1520   1.0000
  17.000   0.6834   0.20997   0.20354  -0.0629   0.1454   1.0000
  17.250   0.6885   0.21409   0.20766  -0.0637   0.1424   1.0000
  17.500   0.6838   0.21486   0.20845  -0.0655   0.1380   1.0000
  17.750   0.6890   0.21801   0.21162  -0.0661   0.1329   1.0000
  18.000   0.7064   0.22607   0.21971  -0.0658   0.1295   1.0000
  18.250   0.6968   0.22506   0.21870  -0.0680   0.1282   1.0000
  18.500   0.6951   0.22664   0.22029  -0.0696   0.1246   1.0000
  18.750   0.6987   0.22956   0.22324  -0.0706   0.1204   1.0000
  19.000   0.7125   0.23596   0.22969  -0.0703   0.1163   1.0000
  19.250   0.7124   0.23861   0.23234  -0.0717   0.1150   1.0000
  19.500   0.7077   0.23897   0.23270  -0.0738   0.1125   1.0000
  19.750   0.7094   0.24149   0.23524  -0.0750   0.1086   1.0000
  20.000   0.7141   0.24478   0.23859  -0.0758   0.1050   1.0000
   0.000   0.2130   0.00868  -0.00089  -0.0402   0.9524   1.0000
  -0.250   0.1645   0.00808  -0.00140  -0.0352   0.9725   1.0000
  -0.500   0.1067   0.00737  -0.00196  -0.0282   0.9915   1.0000
  -0.750   0.0709   0.00670  -0.00251  -0.0249   1.0000   1.0000
  -1.000   0.0542   0.00617  -0.00291  -0.0252   1.0000   1.0000
  -1.250   0.0373   0.00571  -0.00323  -0.0255   1.0000   1.0000
  -1.500   0.0200   0.00532  -0.00346  -0.0259   1.0000   1.0000
  -1.750   0.0025   0.00498  -0.00361  -0.0263   1.0000   1.0000
  -2.000  -0.0151   0.00469  -0.00367  -0.0267   1.0000   1.0000
  -2.250  -0.0329   0.00444  -0.00362  -0.0273   1.0000   1.0000
  -2.500  -0.0508   0.00424  -0.00347  -0.0279   1.0000   1.0000
  -2.750  -0.0703   0.00408  -0.00303  -0.0284   1.0000   1.0000
  -3.000  -0.0928   0.00630  -0.00326  -0.0322   1.0000   0.3444
  -3.250  -0.1175   0.00752  -0.00245  -0.0325   1.0000   0.2696
  -3.500  -0.1139   0.02214   0.01126  -0.0378   1.0000   0.2527
  -3.750  -0.1401   0.02340   0.01245  -0.0384   1.0000   0.2196
  -4.000  -0.1651   0.02455   0.01369  -0.0391   1.0000   0.1959
  -4.250  -0.1907   0.02596   0.01527  -0.0397   1.0000   0.1833
  -4.500  -0.2149   0.02753   0.01691  -0.0404   1.0000   0.1735
  -4.750  -0.2403   0.02909   0.01893  -0.0410   1.0000   0.1636
  -5.000  -0.2642   0.03121   0.02123  -0.0416   1.0000   0.1600
  -5.250  -0.2888   0.03379   0.02429  -0.0420   1.0000   0.1580
  -5.500  -0.3129   0.03661   0.02771  -0.0420   1.0000   0.1556
  -5.750  -0.3348   0.03995   0.03135  -0.0422   1.0000   0.1585
  -6.000  -0.3607   0.04497   0.03721  -0.0403   1.0000   0.1758
  -6.500  -0.4046   0.06724   0.06110   0.0126   1.0000   0.4929
  -6.750  -0.4129   0.06998   0.06377   0.0082   1.0000   0.4508
  -7.000  -0.4323   0.07345   0.06724   0.0033   1.0000   0.4138
  -7.250  -0.4329   0.07589   0.06962   0.0012   1.0000   0.3854
  -7.500  -0.4324   0.07860   0.07223  -0.0000   1.0000   0.3615
  -7.750  -0.4468   0.08214   0.07575  -0.0028   1.0000   0.3393
  -8.000  -0.4468   0.08511   0.07862  -0.0033   1.0000   0.3202
  -8.250  -0.4438   0.08758   0.08099  -0.0036   1.0000   0.3011
  -8.000  -0.4468   0.08511   0.07862  -0.0033   1.0000   0.3202
  -8.100  -0.4490   0.08610   0.07959  -0.0039   1.0000   0.3104
  -8.200  -0.4482   0.08741   0.08086  -0.0038   1.0000   0.3045
  -8.500  -0.4480   0.09055   0.08390  -0.0048   1.0000   0.2828
  -9.000  -0.4515   0.09658   0.08978  -0.0056   1.0000   0.2539
  -9.250  -0.4565   0.10011   0.09325  -0.0057   1.0000   0.2437
  -9.500  -0.4762   0.10516   0.09834  -0.0074   1.0000   0.2320
  -9.750  -0.4607   0.10620   0.09922  -0.0050   1.0000   0.2233
 -10.000  -0.4715   0.11058   0.10359  -0.0053   1.0000   0.2159
 -10.250  -0.4709   0.11304   0.10599  -0.0044   1.0000   0.2062
 -10.500  -0.4747   0.11677   0.10966  -0.0037   1.0000   0.2002
 -10.750  -0.4996   0.12301   0.11594  -0.0061   1.0000   0.1878
 -11.000  -0.4805   0.12315   0.11594  -0.0022   1.0000   0.1847
 -10.750  -0.4996   0.12301   0.11594  -0.0061   1.0000   0.1878
 -10.850  -0.4911   0.12299   0.11586  -0.0044   1.0000   0.1873
 -10.950  -0.4834   0.12301   0.11582  -0.0029   1.0000   0.1859
 -11.250  -0.5085   0.13010   0.12295  -0.0049   1.0000   0.1734
 -11.500  -0.4903   0.13008   0.12280  -0.0009   1.0000   0.1710
 -11.750  -0.4916   0.13270   0.12538   0.0003   1.0000   0.1638
 -12.000  -0.5107   0.13894   0.13163  -0.0008   1.0000   0.1587
 -12.250  -0.4995   0.13957   0.13217   0.0023   1.0000   0.1549
 -12.500  -0.5064   0.14300   0.13559   0.0029   1.0000   0.1487
 -12.750  -0.5240   0.14938   0.14200   0.0022   1.0000   0.1447
 -13.000  -0.5145   0.14989   0.14243   0.0053   1.0000   0.1418
 -13.250  -0.5183   0.15279   0.14530   0.0065   1.0000   0.1366
 -13.500  -0.5460   0.16160   0.15415   0.0044   1.0000   0.1309
 -13.750  -0.5351   0.16128   0.15375   0.0078   1.0000   0.1296
 -14.000  -0.5336   0.16284   0.15527   0.0101   1.0000   0.1254
 -14.250  -0.5421   0.16648   0.15890   0.0107   1.0000   0.1201
 -14.500  -0.5647   0.17515   0.16759   0.0095   1.0000   0.1163
 -14.750  -0.5571   0.17467   0.16704   0.0127   1.0000   0.1150
 -15.000  -0.5577   0.17623   0.16856   0.0150   1.0000   0.1119
 -15.250  -0.5639   0.17929   0.17161   0.0164   1.0000   0.1083
 -15.500  -0.5741   0.18342   0.17575   0.0170   1.0000   0.1049
 -15.750  -0.6003   0.19462   0.18700   0.0156   1.0000   0.1020
 -16.000  -0.5944   0.19352   0.18584   0.0187   1.0000   0.1015
 -16.250  -0.5934   0.19359   0.18586   0.0216   1.0000   0.0999
 -16.500  -0.5982   0.19575   0.18801   0.0237   1.0000   0.0971
 -16.750  -0.6055   0.19882   0.19107   0.0253   1.0000   0.0942
 -17.000  -0.6146   0.20249   0.19474   0.0264   1.0000   0.0914
 -17.250  -0.6324   0.21067   0.20296   0.0258   1.0000   0.0886
 -17.500  -0.6420   0.21615   0.20840   0.0271   1.0000   0.0876
 -17.750  -0.6407   0.21469   0.20689   0.0304   1.0000   0.0868
 -18.000  -0.6446   0.21543   0.20761   0.0332   1.0000   0.0847
 -18.250  -0.6518   0.21799   0.21015   0.0353   1.0000   0.0819
 -18.500  -0.6602   0.22114   0.21333   0.0369   1.0000   0.0793
 -18.750  -0.6697   0.22492   0.21711   0.0381   1.0000   0.0770
 -19.000  -0.6829   0.23144   0.22366   0.0383   1.0000   0.0751
 -19.250  -0.6994   0.24177   0.23399   0.0384   1.0000   0.0740
 -19.500  -0.7002   0.23998   0.23216   0.0417   1.0000   0.0737
 -19.750  -0.7037   0.23939   0.23154   0.0449   1.0000   0.0729
 -20.000  -0.7101   0.24061   0.23275   0.0476   1.0000   0.0715
