  
       XFOIL         Version 6.99
  
 Calculated polar for: S4061-096-84                                    
  
 1 1 Reynolds number fixed          Mach number fixed         
  
 xtrf =   1.000 (top)        1.000 (bottom)  
 Mach =   0.000     Re =     0.050 e 6     Ncrit =   9.000
  
   alpha    CL        CD       CDp       CM     Top_Xtr  Bot_Xtr
  ------ -------- --------- --------- -------- -------- --------
   0.000   0.1325   0.02777   0.01865  -0.0656   0.9622   1.0000
   0.250   0.1676   0.02878   0.01934  -0.0681   0.9517   1.0000
   0.500   0.2048   0.02988   0.02015  -0.0709   0.9413   1.0000
   0.750   0.2425   0.03097   0.02100  -0.0738   0.9305   1.0000
   1.000   0.2699   0.03188   0.02174  -0.0749   0.9193   1.0000
   1.250   0.3001   0.03289   0.02260  -0.0765   0.9082   1.0000
   1.500   0.3338   0.03397   0.02354  -0.0785   0.8970   1.0000
   1.750   0.3711   0.03509   0.02454  -0.0810   0.8857   1.0000
   2.000   0.3942   0.03604   0.02541  -0.0813   0.8734   1.0000
   2.250   0.4200   0.03706   0.02637  -0.0820   0.8611   1.0000
   2.500   0.4483   0.03813   0.02738  -0.0830   0.8486   1.0000
   2.750   0.4787   0.03918   0.02842  -0.0842   0.8360   1.0000
   3.000   0.5112   0.04022   0.02944  -0.0855   0.8230   1.0000
   3.250   0.5460   0.04119   0.03041  -0.0870   0.8098   1.0000
   3.500   0.5736   0.04216   0.03140  -0.0875   0.7958   1.0000
   3.750   0.6000   0.04311   0.03240  -0.0878   0.7813   1.0000
   4.000   0.6276   0.04404   0.03337  -0.0881   0.7665   1.0000
   4.250   0.6571   0.04487   0.03426  -0.0885   0.7514   1.0000
   4.500   0.6877   0.04562   0.03509  -0.0888   0.7361   1.0000
   4.750   0.7205   0.04620   0.03580  -0.0891   0.7206   1.0000
   5.000   0.7392   0.04720   0.03688  -0.0881   0.7036   1.0000
   5.250   0.7607   0.04809   0.03786  -0.0873   0.6862   1.0000
   5.500   0.7872   0.04872   0.03861  -0.0868   0.6688   1.0000
   5.750   0.8199   0.04891   0.03899  -0.0864   0.6515   1.0000
   6.000   0.8592   0.04853   0.03880  -0.0861   0.6346   1.0000
   6.250   0.9069   0.04726   0.03780  -0.0857   0.6182   1.0000
   6.500   0.9562   0.04529   0.03607  -0.0847   0.6024   1.0000
   6.750   0.9657   0.04647   0.03738  -0.0823   0.5800   1.0000
   7.000   1.0169   0.04377   0.03499  -0.0807   0.5621   1.0000
   7.250   1.0836   0.03941   0.03089  -0.0793   0.5436   1.0000
   7.500   1.1110   0.03865   0.03033  -0.0770   0.5181   1.0000
   7.750   1.1499   0.03681   0.02862  -0.0749   0.4907   1.0000
   8.000   1.1852   0.03542   0.02727  -0.0728   0.4600   1.0000
   8.250   1.2181   0.03442   0.02620  -0.0707   0.4265   1.0000
   8.500   1.2385   0.03470   0.02643  -0.0683   0.3926   1.0000
   8.750   1.2564   0.03532   0.02697  -0.0659   0.3584   1.0000
   9.000   1.2767   0.03601   0.02742  -0.0638   0.3238   1.0000
   9.250   1.2908   0.03740   0.02873  -0.0615   0.2917   1.0000
   9.500   1.3032   0.03912   0.03036  -0.0592   0.2612   1.0000
   9.750   1.3155   0.04107   0.03220  -0.0570   0.2324   1.0000
  10.000   1.3284   0.04324   0.03422  -0.0550   0.2053   1.0000
  10.250   1.3355   0.04555   0.03657  -0.0526   0.1824   1.0000
  10.500   1.3421   0.04798   0.03897  -0.0503   0.1618   1.0000
  10.750   1.3451   0.05053   0.04164  -0.0478   0.1450   1.0000
  11.000   1.3496   0.05340   0.04464  -0.0456   0.1309   1.0000
  11.250   1.3545   0.05669   0.04806  -0.0437   0.1202   1.0000
  11.500   1.3661   0.06000   0.05134  -0.0425   0.1101   1.0000
  11.750   1.3517   0.06370   0.05555  -0.0393   0.1077   1.0000
  12.000   1.3367   0.06765   0.05987  -0.0367   0.1058   1.0000
  12.250   1.3197   0.07187   0.06440  -0.0348   0.1042   1.0000
  12.500   1.2984   0.07655   0.06937  -0.0336   0.1038   1.0000
  12.750   1.2696   0.08217   0.07529  -0.0337   0.1048   1.0000
  13.000   1.2374   0.08880   0.08217  -0.0351   0.1062   1.0000
  13.250   1.2051   0.09634   0.08989  -0.0378   0.1078   1.0000
  13.500   1.1759   0.10458   0.09825  -0.0415   0.1093   1.0000
  13.750   1.1497   0.11350   0.10721  -0.0458   0.1105   1.0000
  13.750   1.1431   0.11457   0.10832  -0.0469   0.1118   1.0000
  13.850   1.1380   0.11757   0.11133  -0.0481   0.1113   1.0000
  14.250   1.0027   0.16639   0.15967  -0.0818   0.1646   1.0000
  14.350   1.0042   0.16909   0.16238  -0.0826   0.1649   1.0000
  14.500   0.7386   0.17380   0.16748  -0.0844   0.2911   1.0000
  14.600   0.7356   0.17440   0.16810  -0.0850   0.2869   1.0000
  14.700   0.7418   0.17616   0.16991  -0.0850   0.2822   1.0000
  15.000   0.7410   0.17959   0.17339  -0.0864   0.2709   1.0000
  15.250   0.7464   0.18336   0.17721  -0.0872   0.2614   1.0000
  15.500   0.7612   0.18865   0.18258  -0.0873   0.2497   1.0000
  15.750   0.7535   0.18976   0.18371  -0.0890   0.2398   1.0000
  16.000   0.7570   0.19367   0.18766  -0.0902   0.2332   1.0000
  16.250   0.7765   0.19996   0.19404  -0.0899   0.2214   1.0000
  16.500   0.7606   0.19989   0.19396  -0.0926   0.2158   1.0000
  16.750   0.7836   0.20730   0.20145  -0.0921   0.2072   1.0000
  17.000   0.7682   0.20709   0.20123  -0.0950   0.2032   1.0000
  17.250   0.7923   0.21480   0.20902  -0.0942   0.1931   1.0000
  17.500   0.7757   0.21425   0.20845  -0.0974   0.1897   1.0000
  17.750   0.7791   0.21745   0.21169  -0.0987   0.1833   1.0000
  18.000   0.7956   0.22431   0.21861  -0.0986   0.1787   1.0000
  18.250   0.7848   0.22471   0.21901  -0.1016   0.1742   1.0000
  18.500   0.7932   0.22872   0.22307  -0.1022   0.1672   1.0000
  18.750   0.7993   0.23354   0.22790  -0.1033   0.1641   1.0000
  19.000   0.7952   0.23543   0.22983  -0.1057   0.1590   1.0000
  19.250   0.8021   0.23938   0.23382  -0.1066   0.1541   1.0000
  19.500   0.8164   0.24654   0.24102  -0.1067   0.1510   1.0000
  19.750   0.8071   0.24697   0.24146  -0.1098   0.1479   1.0000
  20.000   0.8104   0.25037   0.24490  -0.1114   0.1426   1.0000
   0.000   0.1325   0.02777   0.01865  -0.0656   0.9622   1.0000
  -0.250   0.0980   0.02684   0.01809  -0.0630   0.9725   1.0000
  -0.500   0.0556   0.02573   0.01754  -0.0591   0.9827   1.0000
  -0.750   0.0099   0.02543   0.01785  -0.0544   0.9939   0.7345
  -1.000  -0.0216   0.02704   0.01778  -0.0553   1.0000   0.4424
  -1.250  -0.0462   0.02763   0.01807  -0.0555   1.0000   0.3529
  -1.500  -0.0704   0.02819   0.01852  -0.0557   1.0000   0.2901
  -1.750  -0.0925   0.02895   0.01913  -0.0562   1.0000   0.2410
  -2.000  -0.1159   0.02982   0.02007  -0.0565   1.0000   0.1979
  -2.250  -0.1391   0.03093   0.02120  -0.0567   1.0000   0.1658
  -2.500  -0.1653   0.03245   0.02312  -0.0565   1.0000   0.1448
  -2.750  -0.1898   0.03409   0.02498  -0.0563   1.0000   0.1330
  -3.000  -0.2192   0.03661   0.02817  -0.0553   1.0000   0.1263
  -3.250  -0.2476   0.03951   0.03160  -0.0539   1.0000   0.1248
  -3.500  -0.2680   0.04191   0.03399  -0.0537   1.0000   0.1203
  -3.750  -0.3078   0.04804   0.04131  -0.0480   1.0000   0.1314
  -3.750  -0.3078   0.04804   0.04131  -0.0480   1.0000   0.1314
  -3.850  -0.3159   0.04953   0.04282  -0.0477   1.0000   0.1336
  -3.950  -0.3214   0.05079   0.04398  -0.0483   1.0000   0.1350
  -4.250  -0.4192   0.07281   0.06788  -0.0001   1.0000   0.3404
  -4.500  -0.4193   0.07524   0.07028  -0.0013   1.0000   0.3243
  -4.750  -0.4176   0.07762   0.07261  -0.0024   1.0000   0.3102
  -5.000  -0.4251   0.08101   0.07595  -0.0077   1.0000   0.3021
  -5.250  -0.4171   0.08245   0.07734  -0.0069   1.0000   0.2883
  -5.500  -0.4027   0.08392   0.07871  -0.0066   1.0000   0.2778
  -5.750  -0.4070   0.08714   0.08187  -0.0103   1.0000   0.2702
  -5.750  -0.4070   0.08714   0.08187  -0.0103   1.0000   0.2702
  -5.850  -0.3913   0.08670   0.08137  -0.0094   1.0000   0.2667
  -5.950  -0.3853   0.08704   0.08167  -0.0100   1.0000   0.2637
  -6.250  -0.3879   0.09055   0.08511  -0.0139   1.0000   0.2547
  -6.500  -0.3573   0.09010   0.08449  -0.0158   1.0000   0.2495
  -6.750  -0.3721   0.09429   0.08866  -0.0193   1.0000   0.2400
  -7.000  -0.3377   0.09332   0.08748  -0.0224   1.0000   0.2383
  -7.250  -0.3145   0.09324   0.08722  -0.0254   1.0000   0.2339
  -7.500  -0.3274   0.09733   0.09126  -0.0274   1.0000   0.2242
  -7.750  -0.3062   0.09720   0.09091  -0.0281   1.0000   0.2186
  -8.000  -0.3257   0.10213   0.09584  -0.0297   1.0000   0.2094
  -8.250  -0.3087   0.10216   0.09568  -0.0285   1.0000   0.2034
  -8.500  -0.3366   0.10850   0.10205  -0.0305   1.0000   0.1947
  -8.750  -0.3166   0.10786   0.10122  -0.0279   1.0000   0.1904
  -9.000  -0.3250   0.11097   0.10429  -0.0278   1.0000   0.1829
  -9.250  -0.3383   0.11577   0.10906  -0.0279   1.0000   0.1790
  -9.500  -0.3289   0.11634   0.10953  -0.0256   1.0000   0.1735
  -9.750  -0.3434   0.12058   0.11375  -0.0259   1.0000   0.1667
 -10.000  -0.3509   0.12468   0.11779  -0.0251   1.0000   0.1638
 -10.250  -0.3447   0.12547   0.11849  -0.0228   1.0000   0.1590
 -10.500  -0.3541   0.12894   0.12194  -0.0223   1.0000   0.1532
 -10.750  -0.3760   0.13593   0.12893  -0.0230   1.0000   0.1495
 -11.000  -0.3655   0.13556   0.12846  -0.0200   1.0000   0.1473
 -11.250  -0.3678   0.13772   0.13057  -0.0184   1.0000   0.1423
 -11.500  -0.3803   0.14190   0.13475  -0.0181   1.0000   0.1374
 -11.750  -0.3977   0.14843   0.14128  -0.0181   1.0000   0.1346
 -12.000  -0.3896   0.14807   0.14084  -0.0152   1.0000   0.1324
 -12.250  -0.3930   0.15029   0.14303  -0.0135   1.0000   0.1279
 -12.500  -0.4046   0.15432   0.14705  -0.0129   1.0000   0.1231
 -12.750  -0.4248   0.16194   0.15467  -0.0131   1.0000   0.1201
 -13.000  -0.4176   0.16115   0.15380  -0.0101   1.0000   0.1184
 -13.250  -0.4206   0.16298   0.15560  -0.0081   1.0000   0.1146
 -13.500  -0.4289   0.16620   0.15881  -0.0069   1.0000   0.1107
 -13.750  -0.4468   0.17261   0.16524  -0.0070   1.0000   0.1070
 -14.000  -0.4590   0.17839   0.17099  -0.0060   1.0000   0.1057
 -14.250  -0.4560   0.17790   0.17045  -0.0032   1.0000   0.1047
 -14.500  -0.4586   0.17913   0.17166  -0.0008   1.0000   0.1022
 -14.750  -0.4657   0.18186   0.17437   0.0009   1.0000   0.0992
 -15.000  -0.4747   0.18512   0.17762   0.0023   1.0000   0.0964
 -15.250  -0.4873   0.18984   0.18235   0.0031   1.0000   0.0937
 -15.500  -0.5091   0.20018   0.19269   0.0029   1.0000   0.0917
 -15.750  -0.5081   0.19934   0.19181   0.0057   1.0000   0.0913
 -16.000  -0.5096   0.19919   0.19162   0.0086   1.0000   0.0902
 -16.250  -0.5154   0.20098   0.19339   0.0109   1.0000   0.0878
 -16.500  -0.5236   0.20377   0.19616   0.0128   1.0000   0.0854
 -16.750  -0.5327   0.20692   0.19931   0.0145   1.0000   0.0831
 -17.000  -0.5431   0.21067   0.20306   0.0158   1.0000   0.0809
 -17.250  -0.5582   0.21758   0.21002   0.0162   1.0000   0.0789
 -17.500  -0.5727   0.22554   0.21795   0.0172   1.0000   0.0780
 -17.750  -0.5740   0.22406   0.21643   0.0203   1.0000   0.0776
 -18.000  -0.5782   0.22395   0.21630   0.0232   1.0000   0.0765
 -18.250  -0.5853   0.22565   0.21797   0.0257   1.0000   0.0746
 -18.500  -0.5940   0.22833   0.22065   0.0278   1.0000   0.0724
 -18.750  -0.6031   0.23132   0.22364   0.0297   1.0000   0.0702
 -19.000  -0.6130   0.23480   0.22712   0.0313   1.0000   0.0682
 -19.250  -0.6242   0.23945   0.23178   0.0325   1.0000   0.0665
 -19.250  -0.6242   0.23945   0.23178   0.0325   1.0000   0.0665
 -19.350  -0.6302   0.24271   0.23505   0.0327   1.0000   0.0659
 -19.450  -0.6400   0.24971   0.24212   0.0322   1.0000   0.0653
 -19.750  -0.6485   0.25249   0.24484   0.0351   1.0000   0.0649
 -20.000  -0.6526   0.25132   0.24364   0.0382   1.0000   0.0645
