  
       XFOIL         Version 6.99
  
 Calculated polar for: SD7032-099-88                                   
  
 1 1 Reynolds number fixed          Mach number fixed         
  
 xtrf =   1.000 (top)        1.000 (bottom)  
 Mach =   0.000     Re =     0.050 e 6     Ncrit =   9.000
  
   alpha    CL        CD       CDp       CM     Top_Xtr  Bot_Xtr
  ------ -------- --------- --------- -------- -------- --------
   0.000   0.1224   0.02608   0.01724  -0.0583   0.9745   1.0000
   0.250   0.1724   0.02731   0.01810  -0.0636   0.9585   1.0000
   0.500   0.2206   0.02843   0.01894  -0.0684   0.9427   1.0000
   0.750   0.2602   0.02933   0.01960  -0.0716   0.9256   1.0000
   1.000   0.2994   0.03018   0.02028  -0.0745   0.9084   1.0000
   1.250   0.3385   0.03099   0.02094  -0.0772   0.8913   1.0000
   1.500   0.3783   0.03174   0.02156  -0.0798   0.8744   1.0000
   1.750   0.4186   0.03240   0.02213  -0.0824   0.8579   1.0000
   2.000   0.4600   0.03297   0.02262  -0.0848   0.8416   1.0000
   2.250   0.5018   0.03343   0.02303  -0.0871   0.8257   1.0000
   2.500   0.5298   0.03404   0.02361  -0.0875   0.8076   1.0000
   2.750   0.5627   0.03453   0.02410  -0.0883   0.7904   1.0000
   3.000   0.5989   0.03487   0.02444  -0.0894   0.7738   1.0000
   3.250   0.6369   0.03507   0.02466  -0.0905   0.7577   1.0000
   3.500   0.6769   0.03508   0.02475  -0.0916   0.7420   1.0000
   3.750   0.7153   0.03498   0.02469  -0.0921   0.7266   1.0000
   4.000   0.7528   0.03479   0.02455  -0.0923   0.7112   1.0000
   4.250   0.7902   0.03450   0.02436  -0.0923   0.6959   1.0000
   4.500   0.8282   0.03407   0.02400  -0.0922   0.6804   1.0000
   4.750   0.8580   0.03411   0.02410  -0.0913   0.6632   1.0000
   5.000   0.8827   0.03447   0.02454  -0.0902   0.6446   1.0000
   5.250   0.9150   0.03430   0.02449  -0.0894   0.6273   1.0000
   5.500   0.9495   0.03398   0.02424  -0.0886   0.6103   1.0000
   5.750   0.9848   0.03358   0.02390  -0.0879   0.5933   1.0000
   6.000   1.0119   0.03384   0.02426  -0.0868   0.5747   1.0000
   6.250   1.0343   0.03448   0.02500  -0.0854   0.5553   1.0000
   6.500   1.0638   0.03459   0.02518  -0.0843   0.5368   1.0000
   6.750   1.0969   0.03449   0.02512  -0.0835   0.5187   1.0000
   7.000   1.1141   0.03564   0.02641  -0.0819   0.4990   1.0000
   7.250   1.1379   0.03628   0.02714  -0.0806   0.4797   1.0000
   7.500   1.1678   0.03651   0.02738  -0.0796   0.4609   1.0000
   7.750   1.1869   0.03757   0.02860  -0.0780   0.4415   1.0000
   8.000   1.2066   0.03858   0.02973  -0.0765   0.4221   1.0000
   8.250   1.2357   0.03884   0.02997  -0.0754   0.4022   1.0000
   8.500   1.2520   0.04011   0.03139  -0.0736   0.3829   1.0000
   8.750   1.2700   0.04120   0.03263  -0.0719   0.3631   1.0000
   9.000   1.2986   0.04150   0.03284  -0.0708   0.3420   1.0000
   9.250   1.3084   0.04320   0.03478  -0.0685   0.3230   1.0000
   9.500   1.3303   0.04389   0.03545  -0.0670   0.3015   1.0000
   9.750   1.3452   0.04529   0.03693  -0.0650   0.2819   1.0000
  10.000   1.3553   0.04697   0.03877  -0.0627   0.2630   1.0000
  10.250   1.3812   0.04772   0.03934  -0.0616   0.2415   1.0000
  10.500   1.3864   0.04997   0.04180  -0.0591   0.2257   1.0000
  10.750   1.3937   0.05234   0.04434  -0.0568   0.2112   1.0000
  11.000   1.4005   0.05458   0.04670  -0.0546   0.1972   1.0000
  11.250   1.4108   0.05701   0.04920  -0.0528   0.1845   1.0000
  11.500   1.3881   0.06126   0.05396  -0.0491   0.1804   1.0000
  11.750   1.3962   0.06369   0.05643  -0.0473   0.1695   1.0000
  12.000   1.3667   0.06807   0.06114  -0.0437   0.1681   1.0000
  12.250   1.3335   0.07327   0.06659  -0.0414   0.1681   1.0000
  12.500   1.2966   0.07974   0.07326  -0.0409   0.1692   1.0000
  12.750   1.2588   0.08757   0.08123  -0.0423   0.1707   1.0000
  12.750   1.2499   0.08864   0.08233  -0.0430   0.1726   1.0000
  12.850   1.2396   0.09163   0.08535  -0.0438   0.1721   1.0000
  13.000   1.0017   0.14521   0.13802  -0.0805   0.2281   1.0000
  13.100   1.0017   0.14781   0.14065  -0.0813   0.2278   1.0000
  14.000   0.7454   0.17076   0.16417  -0.0868   0.3125   1.0000
  13.750   0.7319   0.16645   0.15977  -0.0864   0.3240   1.0000
  13.850   0.7344   0.16746   0.16081  -0.0866   0.3181   1.0000
  13.950   0.7521   0.17114   0.16455  -0.0863   0.3132   1.0000
  14.250   0.7404   0.17239   0.16586  -0.0879   0.3032   1.0000
  14.000   0.7454   0.17076   0.16417  -0.0868   0.3125   1.0000
  14.100   0.7367   0.17056   0.16398  -0.0875   0.3091   1.0000
  14.200   0.7375   0.17157   0.16502  -0.0878   0.3050   1.0000
  14.500   0.7483   0.17668   0.17022  -0.0888   0.2976   1.0000
  14.750   0.7515   0.17926   0.17290  -0.0897   0.2870   1.0000
  15.000   0.7481   0.18169   0.17537  -0.0911   0.2795   1.0000
  15.250   0.7705   0.18806   0.18185  -0.0911   0.2701   1.0000
  15.500   0.7547   0.18800   0.18181  -0.0933   0.2640   1.0000
  15.750   0.7782   0.19495   0.18886  -0.0932   0.2559   1.0000
  16.000   0.7618   0.19451   0.18843  -0.0956   0.2493   1.0000
  16.250   0.7778   0.20008   0.19410  -0.0958   0.2410   1.0000
  16.500   0.7693   0.20110   0.19515  -0.0980   0.2345   1.0000
  16.750   0.7925   0.20861   0.20276  -0.0977   0.2274   1.0000
  17.000   0.7764   0.20801   0.20216  -0.1005   0.2222   1.0000
  17.250   0.7972   0.21498   0.20925  -0.1002   0.2132   1.0000
  17.500   0.7843   0.21500   0.20929  -0.1031   0.2088   1.0000
  17.750   0.7931   0.21914   0.21350  -0.1037   0.2014   1.0000
  18.000   0.7954   0.22304   0.21743  -0.1053   0.1976   1.0000
  18.250   0.7970   0.22567   0.22012  -0.1068   0.1890   1.0000
  18.500   0.8078   0.23150   0.22600  -0.1074   0.1847   1.0000
  18.750   0.8016   0.23293   0.22745  -0.1099   0.1795   1.0000
  19.000   0.8227   0.24105   0.23565  -0.1093   0.1715   1.0000
  19.250   0.8106   0.24084   0.23544  -0.1125   0.1686   1.0000
  19.500   0.8144   0.24433   0.23898  -0.1138   0.1616   1.0000
  19.750   0.8282   0.25133   0.24603  -0.1140   0.1575   1.0000
  20.000   0.8199   0.25214   0.24685  -0.1170   0.1534   1.0000
   0.000   0.1224   0.02608   0.01724  -0.0583   0.9745   1.0000
  -0.250   0.0714   0.02477   0.01637  -0.0527   0.9901   1.0000
  -0.500   0.0300   0.02363   0.01571  -0.0486   1.0000   1.0000
  -0.750   0.0090   0.02296   0.01552  -0.0482   1.0000   1.0000
  -1.000  -0.0144   0.02235   0.01565  -0.0477   1.0000   1.0000
  -1.250  -0.0174   0.02579   0.01609  -0.0548   1.0000   0.2816
  -1.500  -0.0456   0.02713   0.01693  -0.0545   1.0000   0.1930
  -1.750  -0.0685   0.02797   0.01772  -0.0551   1.0000   0.1664
  -2.000  -0.0911   0.02895   0.01873  -0.0557   1.0000   0.1505
  -2.250  -0.1162   0.03005   0.02023  -0.0561   1.0000   0.1418
  -2.500  -0.1408   0.03143   0.02183  -0.0562   1.0000   0.1326
  -2.750  -0.1683   0.03324   0.02412  -0.0559   1.0000   0.1296
  -3.000  -0.1975   0.03563   0.02705  -0.0551   1.0000   0.1299
  -3.250  -0.2271   0.03838   0.03034  -0.0537   1.0000   0.1295
  -3.500  -0.2563   0.04171   0.03418  -0.0519   1.0000   0.1327
  -3.750  -0.2890   0.04665   0.03970  -0.0487   1.0000   0.1493
  -4.500  -0.3974   0.07406   0.06905   0.0072   1.0000   0.3945
  -4.750  -0.4066   0.07724   0.07218   0.0020   1.0000   0.3750
  -5.000  -0.3892   0.07827   0.07309   0.0015   1.0000   0.3540
  -5.250  -0.3849   0.08024   0.07497  -0.0014   1.0000   0.3358
  -5.500  -0.3809   0.08230   0.07695  -0.0042   1.0000   0.3196
  -5.250  -0.3849   0.08024   0.07497  -0.0014   1.0000   0.3358
  -5.350  -0.3957   0.08217   0.07689  -0.0040   1.0000   0.3289
  -5.450  -0.3802   0.08189   0.07655  -0.0034   1.0000   0.3239
  -5.750  -0.3750   0.08429   0.07883  -0.0068   1.0000   0.3045
  -6.000  -0.3656   0.08609   0.08052  -0.0093   1.0000   0.2916
  -6.250  -0.3602   0.08821   0.08253  -0.0119   1.0000   0.2804
  -6.500  -0.3654   0.09120   0.08546  -0.0147   1.0000   0.2684
  -6.750  -0.3380   0.09112   0.08519  -0.0177   1.0000   0.2613
  -7.000  -0.3385   0.09386   0.08784  -0.0201   1.0000   0.2523
  -7.250  -0.3600   0.09864   0.09262  -0.0220   1.0000   0.2396
  -7.500  -0.3236   0.09737   0.09110  -0.0240   1.0000   0.2364
  -7.750  -0.3474   0.10265   0.09639  -0.0260   1.0000   0.2247
  -8.000  -0.3177   0.10166   0.09518  -0.0263   1.0000   0.2208
  -8.250  -0.3452   0.10765   0.10120  -0.0285   1.0000   0.2099
  -8.500  -0.3180   0.10664   0.09997  -0.0277   1.0000   0.2061
  -8.750  -0.3273   0.10993   0.10325  -0.0287   1.0000   0.1971
  -9.000  -0.3253   0.11249   0.10570  -0.0284   1.0000   0.1929
  -9.250  -0.3241   0.11448   0.10760  -0.0282   1.0000   0.1846
  -9.500  -0.3387   0.11940   0.11249  -0.0290   1.0000   0.1794
  -9.750  -0.3281   0.11989   0.11287  -0.0274   1.0000   0.1741
 -10.000  -0.3587   0.12743   0.12045  -0.0297   1.0000   0.1654
 -10.250  -0.3412   0.12666   0.11954  -0.0271   1.0000   0.1633
 -10.500  -0.3409   0.12853   0.12135  -0.0261   1.0000   0.1564
 -10.750  -0.3628   0.13509   0.12791  -0.0274   1.0000   0.1503
 -11.000  -0.3516   0.13496   0.12767  -0.0249   1.0000   0.1474
 -11.250  -0.3557   0.13750   0.13017  -0.0241   1.0000   0.1409
 -11.500  -0.3822   0.14547   0.13817  -0.0257   1.0000   0.1359
 -11.750  -0.3715   0.14500   0.13760  -0.0230   1.0000   0.1345
 -12.000  -0.3701   0.14645   0.13899  -0.0213   1.0000   0.1300
 -12.250  -0.3780   0.14970   0.14224  -0.0207   1.0000   0.1255
 -12.500  -0.4054   0.15883   0.15139  -0.0221   1.0000   0.1214
 -12.750  -0.3966   0.15816   0.15064  -0.0195   1.0000   0.1204
 -13.000  -0.3945   0.15893   0.15135  -0.0173   1.0000   0.1174
 -13.250  -0.4001   0.16160   0.15399  -0.0161   1.0000   0.1137
 -13.500  -0.4105   0.16545   0.15784  -0.0155   1.0000   0.1098
 -13.750  -0.4357   0.17512   0.16752  -0.0164   1.0000   0.1069
 -14.000  -0.4295   0.17420   0.16653  -0.0138   1.0000   0.1062
 -14.250  -0.4287   0.17460   0.16688  -0.0115   1.0000   0.1042
 -14.500  -0.4339   0.17689   0.16914  -0.0098   1.0000   0.1010
 -14.750  -0.4422   0.18008   0.17232  -0.0086   1.0000   0.0975
 -15.000  -0.4539   0.18445   0.17672  -0.0081   1.0000   0.0948
 -15.250  -0.4759   0.19439   0.18665  -0.0085   1.0000   0.0926
 -15.500  -0.4727   0.19316   0.18537  -0.0058   1.0000   0.0921
 -15.750  -0.4738   0.19322   0.18539  -0.0032   1.0000   0.0905
 -16.000  -0.4795   0.19520   0.18734  -0.0013   1.0000   0.0878
 -16.250  -0.4875   0.19806   0.19018   0.0003   1.0000   0.0848
 -16.500  -0.4971   0.20145   0.19357   0.0015   1.0000   0.0822
 -16.750  -0.5272   0.21664   0.20880  -0.0002   1.0000   0.0788
 -17.000  -0.5253   0.21483   0.20693   0.0025   1.0000   0.0785
 -17.250  -0.5258   0.21373   0.20579   0.0053   1.0000   0.0779
 -17.500  -0.5301   0.21420   0.20623   0.0079   1.0000   0.0767
 -17.750  -0.5370   0.21623   0.20825   0.0100   1.0000   0.0747
 -18.000  -0.5452   0.21890   0.21093   0.0118   1.0000   0.0728
 -18.250  -0.5538   0.22182   0.21384   0.0135   1.0000   0.0709
 -18.500  -0.5632   0.22501   0.21703   0.0151   1.0000   0.0691
 -18.750  -0.5733   0.22882   0.22084   0.0164   1.0000   0.0674
 -19.000  -0.5885   0.23705   0.22910   0.0165   1.0000   0.0657
 -19.250  -0.6023   0.24520   0.23723   0.0175   1.0000   0.0651
 -19.500  -0.6050   0.24383   0.23581   0.0204   1.0000   0.0648
 -19.750  -0.6090   0.24308   0.23504   0.0232   1.0000   0.0643
 -20.000  -0.6155   0.24387   0.23581   0.0258   1.0000   0.0635
