  
       XFOIL         Version 6.99
  
 Calculated polar for: HOBIESMO1.DAT                                   
  
 1 1 Reynolds number fixed          Mach number fixed         
  
 xtrf =   1.000 (top)        1.000 (bottom)  
 Mach =   0.000     Re =     0.050 e 6     Ncrit =   9.000
  
   alpha    CL        CD       CDp       CM     Top_Xtr  Bot_Xtr
  ------ -------- --------- --------- -------- -------- --------
   0.000   0.1217   0.02387   0.01464  -0.0611   0.9947   1.0000
   0.250   0.1712   0.02507   0.01540  -0.0667   0.9811   1.0000
   0.500   0.2166   0.02615   0.01617  -0.0713   0.9670   1.0000
   0.750   0.2598   0.02716   0.01695  -0.0754   0.9529   1.0000
   1.000   0.3010   0.02811   0.01774  -0.0790   0.9387   1.0000
   1.250   0.3408   0.02903   0.01853  -0.0822   0.9244   1.0000
   1.500   0.3791   0.02990   0.01932  -0.0850   0.9100   1.0000
   1.750   0.4159   0.03075   0.02011  -0.0874   0.8954   1.0000
   2.000   0.4515   0.03159   0.02093  -0.0895   0.8809   1.0000
   2.250   0.4861   0.03240   0.02173  -0.0914   0.8664   1.0000
   2.500   0.5198   0.03321   0.02256  -0.0930   0.8518   1.0000
   2.750   0.5527   0.03401   0.02342  -0.0944   0.8372   1.0000
   3.000   0.5850   0.03478   0.02425  -0.0956   0.8224   1.0000
   3.250   0.6168   0.03554   0.02508  -0.0965   0.8074   1.0000
   3.500   0.6481   0.03628   0.02592  -0.0974   0.7925   1.0000
   3.750   0.6795   0.03699   0.02678  -0.0980   0.7775   1.0000
   4.000   0.7112   0.03764   0.02758  -0.0986   0.7624   1.0000
   4.250   0.7439   0.03821   0.02831  -0.0992   0.7473   1.0000
   4.500   0.7777   0.03868   0.02902  -0.0997   0.7322   1.0000
   4.750   0.8116   0.03905   0.02960  -0.0999   0.7171   1.0000
   5.000   0.8458   0.03927   0.03006  -0.0999   0.7019   1.0000
   5.250   0.8806   0.03936   0.03041  -0.0997   0.6868   1.0000
   5.500   0.9159   0.03930   0.03069  -0.0992   0.6717   1.0000
   5.750   0.9272   0.04080   0.03239  -0.0973   0.6530   1.0000
   6.000   0.9532   0.04131   0.03321  -0.0961   0.6362   1.0000
   6.250   1.0544   0.02746   0.01971  -0.0863   0.5532   1.0000
   6.500   1.0611   0.02544   0.01745  -0.0782   0.4681   1.0000
   6.750   1.0555   0.02597   0.01731  -0.0711   0.3264   1.0000
   7.000   1.0432   0.02921   0.01904  -0.0659   0.1670   1.0000
   7.250   1.0428   0.03208   0.02135  -0.0626   0.1288   1.0000
   7.500   1.0467   0.03443   0.02349  -0.0597   0.1128   1.0000
   7.750   1.0551   0.03645   0.02552  -0.0570   0.1026   1.0000
   8.000   1.0743   0.03855   0.02763  -0.0551   0.0960   1.0000
   8.250   1.1142   0.04087   0.02997  -0.0552   0.0884   1.0000
   8.500   1.1587   0.04384   0.03310  -0.0559   0.0823   1.0000
   8.750   1.1966   0.04727   0.03687  -0.0560   0.0809   1.0000
   9.000   1.2233   0.05104   0.04108  -0.0552   0.0812   1.0000
   9.250   1.2421   0.05510   0.04562  -0.0538   0.0824   1.0000
   9.500   1.2545   0.05933   0.05029  -0.0521   0.0836   1.0000
   9.750   1.2610   0.06363   0.05506  -0.0501   0.0843   1.0000
  10.000   1.2639   0.06807   0.05987  -0.0482   0.0851   1.0000
  10.250   1.2647   0.07275   0.06485  -0.0465   0.0858   1.0000
  10.500   1.2688   0.07823   0.07053  -0.0454   0.0866   1.0000
  10.750   1.2209   0.07988   0.07288  -0.0403   0.0889   1.0000
  11.000   1.1814   0.08425   0.07753  -0.0384   0.0913   1.0000
  11.250   1.1477   0.08982   0.08332  -0.0390   0.0931   1.0000
  11.500   1.1175   0.09635   0.09000  -0.0414   0.0950   1.0000
  11.750   1.0930   0.10355   0.09729  -0.0447   0.0967   1.0000
  12.000   1.0871   0.11011   0.10387  -0.0465   0.0985   1.0000
  12.250   0.8960   0.11920   0.11347  -0.0490   0.0981   1.0000
  12.500   0.9926   0.13895   0.13265  -0.0694   0.1091   1.0000
  12.750   0.9723   0.15046   0.14406  -0.0771   0.1195   1.0000
  12.750   0.8282   0.14024   0.13447  -0.0626   0.1109   1.0000
  12.850   0.8342   0.14175   0.13603  -0.0623   0.1123   1.0000
  12.950   0.8043   0.14850   0.14265  -0.0683   0.1227   1.0000
  13.250   0.7545   0.16709   0.16124  -0.0831   0.2352   1.0000
  13.500   0.7542   0.17084   0.16501  -0.0846   0.2351   1.0000
  13.750   0.7650   0.17637   0.17056  -0.0853   0.2332   1.0000
  14.000   0.7491   0.17724   0.17141  -0.0877   0.2303   1.0000
  14.250   0.7503   0.18019   0.17439  -0.0889   0.2241   1.0000
  14.500   0.7728   0.18726   0.18149  -0.0886   0.2195   1.0000
  14.750   0.7551   0.18715   0.18136  -0.0913   0.2158   1.0000
  15.000   0.7582   0.19037   0.18461  -0.0924   0.2101   1.0000
  15.250   0.7745   0.19629   0.19058  -0.0925   0.2065   1.0000
  15.500   0.7662   0.19786   0.19212  -0.0948   0.2036   1.0000
  15.750   0.7662   0.20046   0.19474  -0.0963   0.1975   1.0000
  16.000   0.7809   0.20595   0.20031  -0.0964   0.1930   1.0000
  16.250   0.7763   0.20826   0.20260  -0.0985   0.1901   1.0000
  16.500   0.7765   0.21074   0.20511  -0.1001   0.1837   1.0000
  16.750   0.7977   0.21845   0.21285  -0.0995   0.1784   1.0000
  17.000   0.7843   0.21793   0.21232  -0.1026   0.1750   1.0000
  17.250   0.7911   0.22158   0.21600  -0.1034   0.1675   1.0000
  17.500   0.7999   0.22676   0.22120  -0.1041   0.1642   1.0000
  17.750   0.7944   0.22802   0.22246  -0.1066   0.1589   1.0000
  18.000   0.8050   0.23271   0.22719  -0.1069   0.1530   1.0000
  18.250   0.8092   0.23706   0.23153  -0.1083   0.1506   1.0000
  18.500   0.8057   0.23875   0.23324  -0.1106   0.1461   1.0000
  18.750   0.8124   0.24261   0.23714  -0.1115   0.1410   1.0000
  19.000   0.8244   0.24917   0.24371  -0.1118   0.1378   1.0000
  19.250   0.8178   0.24992   0.24446  -0.1147   0.1347   1.0000
  19.500   0.8214   0.25335   0.24795  -0.1161   0.1296   1.0000
  19.750   0.8349   0.25964   0.25430  -0.1159   0.1256   1.0000
  20.000   0.8338   0.26250   0.25715  -0.1181   0.1240   1.0000
   0.000   0.1217   0.02387   0.01464  -0.0611   0.9947   1.0000
  -0.250   0.0825   0.02287   0.01439  -0.0569   1.0000   1.0000
  -0.500   0.0697   0.02436   0.01474  -0.0592   1.0000   0.5942
  -0.750   0.0469   0.02480   0.01481  -0.0595   1.0000   0.5103
  -1.000   0.0238   0.02507   0.01498  -0.0595   1.0000   0.4570
  -1.250   0.0012   0.02532   0.01522  -0.0597   1.0000   0.4169
  -1.500  -0.0219   0.02563   0.01564  -0.0597   1.0000   0.3867
  -1.750  -0.0429   0.02600   0.01611  -0.0602   1.0000   0.3599
  -2.000  -0.0643   0.02651   0.01672  -0.0606   1.0000   0.3383
  -2.250  -0.0863   0.02707   0.01745  -0.0609   1.0000   0.3137
  -2.500  -0.1079   0.02778   0.01826  -0.0613   1.0000   0.2909
  -2.750  -0.1289   0.02851   0.01905  -0.0620   1.0000   0.2634
  -3.000  -0.1522   0.02950   0.02035  -0.0622   1.0000   0.2298
  -3.250  -0.1746   0.03060   0.02159  -0.0627   1.0000   0.1976
  -3.500  -0.1983   0.03215   0.02335  -0.0627   1.0000   0.1729
  -3.750  -0.2254   0.03488   0.02652  -0.0617   1.0000   0.1600
  -4.000  -0.2529   0.03814   0.03029  -0.0600   1.0000   0.1522
  -4.250  -0.2801   0.04220   0.03485  -0.0572   1.0000   0.1454
  -4.500  -0.3053   0.04702   0.04010  -0.0541   1.0000   0.1476
  -4.750  -0.3311   0.05384   0.04732  -0.0492   1.0000   0.1632
  -5.250  -0.3846   0.07380   0.06816  -0.0107   1.0000   0.3121
  -5.000  -0.3875   0.07157   0.06600  -0.0102   1.0000   0.3244
  -5.100  -0.3907   0.07319   0.06760  -0.0126   1.0000   0.3221
  -5.200  -0.3842   0.07332   0.06769  -0.0102   1.0000   0.3141
  -5.500  -0.3813   0.07618   0.07047  -0.0118   1.0000   0.3025
  -5.750  -0.3901   0.07993   0.07418  -0.0167   1.0000   0.2927
  -6.000  -0.3766   0.08068   0.07483  -0.0157   1.0000   0.2812
  -6.250  -0.3678   0.08259   0.07661  -0.0166   1.0000   0.2734
  -6.500  -0.3713   0.08561   0.07960  -0.0191   1.0000   0.2622
  -6.750  -0.3834   0.08966   0.08362  -0.0227   1.0000   0.2494
  -7.000  -0.3569   0.08922   0.08294  -0.0209   1.0000   0.2448
  -7.250  -0.3792   0.09458   0.08835  -0.0237   1.0000   0.2349
  -7.500  -0.3506   0.09379   0.08729  -0.0236   1.0000   0.2311
  -7.750  -0.3609   0.09736   0.09084  -0.0249   1.0000   0.2221
  -8.000  -0.3529   0.09928   0.09261  -0.0250   1.0000   0.2183
  -8.250  -0.3511   0.10130   0.09454  -0.0252   1.0000   0.2103
  -8.500  -0.3632   0.10589   0.09911  -0.0259   1.0000   0.2053
  -8.750  -0.3525   0.10655   0.09964  -0.0248   1.0000   0.1994
  -9.000  -0.3752   0.11277   0.10589  -0.0264   1.0000   0.1916
  -9.250  -0.3600   0.11259   0.10556  -0.0244   1.0000   0.1878
  -9.500  -0.3859   0.11946   0.11249  -0.0263   1.0000   0.1776
  -9.750  -0.3706   0.11900   0.11187  -0.0239   1.0000   0.1752
 -10.000  -0.3723   0.12130   0.11413  -0.0232   1.0000   0.1680
 -10.250  -0.3944   0.12830   0.12118  -0.0244   1.0000   0.1632
 -10.500  -0.3825   0.12804   0.12081  -0.0219   1.0000   0.1608
 -10.750  -0.3842   0.13035   0.12307  -0.0208   1.0000   0.1554
 -11.000  -0.4062   0.13709   0.12986  -0.0220   1.0000   0.1498
 -11.250  -0.4034   0.13901   0.13170  -0.0203   1.0000   0.1483
 -11.500  -0.3992   0.13994   0.13256  -0.0183   1.0000   0.1446
 -11.750  -0.4053   0.14303   0.13563  -0.0175   1.0000   0.1397
 -12.000  -0.4289   0.15134   0.14397  -0.0186   1.0000   0.1349
 -12.250  -0.4199   0.15070   0.14325  -0.0160   1.0000   0.1334
 -12.500  -0.4203   0.15237   0.14486  -0.0143   1.0000   0.1283
 -12.750  -0.4313   0.15653   0.14903  -0.0141   1.0000   0.1234
 -13.000  -0.4482   0.16377   0.15627  -0.0142   1.0000   0.1208
 -13.250  -0.4426   0.16341   0.15584  -0.0117   1.0000   0.1194
 -13.500  -0.4446   0.16518   0.15758  -0.0099   1.0000   0.1160
 -13.750  -0.4514   0.16829   0.16067  -0.0088   1.0000   0.1124
 -14.000  -0.4635   0.17305   0.16549  -0.0085   1.0000   0.1089
 -14.250  -0.4808   0.18109   0.17352  -0.0085   1.0000   0.1070
 -14.500  -0.4767   0.18028   0.17265  -0.0059   1.0000   0.1061
 -14.750  -0.4784   0.18137   0.17370  -0.0036   1.0000   0.1035
 -15.000  -0.4849   0.18409   0.17641  -0.0021   1.0000   0.1005
 -15.250  -0.4934   0.18753   0.17985  -0.0010   1.0000   0.0974
 -15.500  -0.5105   0.19503   0.18738  -0.0013   1.0000   0.0941
 -15.750  -0.5177   0.19914   0.19145   0.0002   1.0000   0.0930
 -16.000  -0.5175   0.19843   0.19069   0.0029   1.0000   0.0919
 -16.250  -0.5223   0.20000   0.19224   0.0051   1.0000   0.0891
 -16.500  -0.5300   0.20289   0.19512   0.0066   1.0000   0.0858
 -16.750  -0.5393   0.20652   0.19875   0.0078   1.0000   0.0831
 -17.000  -0.5547   0.21406   0.20632   0.0078   1.0000   0.0807
 -17.250  -0.5660   0.22036   0.21263   0.0089   1.0000   0.0799
 -17.500  -0.5670   0.21921   0.21143   0.0117   1.0000   0.0793
 -17.750  -0.5712   0.21968   0.21188   0.0143   1.0000   0.0781
 -18.000  -0.5781   0.22175   0.21393   0.0164   1.0000   0.0761
 -18.250  -0.5861   0.22456   0.21674   0.0182   1.0000   0.0738
 -18.500  -0.5948   0.22770   0.21988   0.0198   1.0000   0.0717
 -18.750  -0.6041   0.23130   0.22348   0.0212   1.0000   0.0698
 -19.000  -0.6162   0.23736   0.22956   0.0218   1.0000   0.0680
 -19.250  -0.6310   0.24718   0.23938   0.0223   1.0000   0.0671
 -19.500  -0.6337   0.24565   0.23781   0.0252   1.0000   0.0667
 -19.750  -0.6383   0.24519   0.23732   0.0281   1.0000   0.0661
 -20.000  -0.6451   0.24649   0.23860   0.0305   1.0000   0.0648
