  
       XFOIL         Version 6.99
  
 Calculated polar for: S9026 (9.5%)                                    
  
 1 1 Reynolds number fixed          Mach number fixed         
  
 xtrf =   1.000 (top)        1.000 (bottom)  
 Mach =   0.000     Re =     0.050 e 6     Ncrit =   9.000
  
   alpha    CL        CD       CDp       CM     Top_Xtr  Bot_Xtr
  ------ -------- --------- --------- -------- -------- --------
   0.000   0.0000   0.01655   0.00687   0.0000   1.0000   1.0000
   0.250   0.0007   0.01660   0.00691   0.0035   1.0000   1.0000
   0.500   0.0028   0.01675   0.00703   0.0067   1.0000   1.0000
   0.750   0.0066   0.01699   0.00725   0.0095   1.0000   1.0000
   1.000   0.0125   0.01733   0.00756   0.0118   1.0000   1.0000
   1.250   0.0200   0.01776   0.00798   0.0135   1.0000   1.0000
   1.500   0.0284   0.01830   0.00851   0.0148   1.0000   1.0000
   1.750   0.0594   0.01915   0.00943   0.0116   0.9911   1.0000
   2.000   0.1632   0.02019   0.01078  -0.0039   0.9489   1.0000
   2.250   0.2806   0.02021   0.01127  -0.0196   0.9014   1.0000
   2.500   0.3649   0.01960   0.01099  -0.0270   0.8502   1.0000
   2.750   0.3995   0.01942   0.01091  -0.0256   0.7978   1.0000
   3.000   0.4227   0.01939   0.01083  -0.0220   0.7475   1.0000
   3.250   0.4408   0.01953   0.01086  -0.0180   0.6960   1.0000
   3.500   0.4589   0.01977   0.01096  -0.0142   0.6438   1.0000
   3.750   0.4774   0.02017   0.01116  -0.0108   0.5910   1.0000
   4.000   0.4964   0.02070   0.01146  -0.0077   0.5385   1.0000
   4.250   0.5156   0.02138   0.01189  -0.0051   0.4871   1.0000
   4.500   0.5353   0.02220   0.01253  -0.0028   0.4381   1.0000
   4.750   0.5555   0.02314   0.01325  -0.0007   0.3928   1.0000
   5.000   0.5762   0.02418   0.01409   0.0011   0.3525   1.0000
   5.250   0.5971   0.02535   0.01515   0.0027   0.3164   1.0000
   5.500   0.6188   0.02669   0.01645   0.0042   0.2862   1.0000
   5.750   0.6402   0.02814   0.01789   0.0055   0.2593   1.0000
   6.000   0.6629   0.02975   0.01935   0.0067   0.2379   1.0000
   6.250   0.6829   0.03157   0.02146   0.0080   0.2175   1.0000
   6.500   0.7033   0.03367   0.02375   0.0091   0.2017   1.0000
   6.750   0.7225   0.03577   0.02607   0.0104   0.1867   1.0000
   7.000   0.7412   0.03836   0.02886   0.0115   0.1760   1.0000
   7.250   0.7609   0.04061   0.03111   0.0125   0.1646   1.0000
   7.500   0.7693   0.04453   0.03578   0.0138   0.1588   1.0000
   7.750   0.7814   0.04805   0.03962   0.0147   0.1539   1.0000
   8.000   0.7917   0.05179   0.04358   0.0156   0.1491   1.0000
   8.250   0.7869   0.05705   0.04936   0.0159   0.1476   1.0000
   8.500   0.7800   0.06260   0.05523   0.0156   0.1478   1.0000
   8.750   0.7739   0.06823   0.06104   0.0149   0.1493   1.0000
   9.000   0.7769   0.07353   0.06640   0.0145   0.1507   1.0000
   9.250   0.5930   0.10676   0.09933  -0.0249   0.3390   1.0000
   9.500   0.6028   0.11067   0.10326  -0.0249   0.3279   1.0000
   9.750   0.5924   0.11363   0.10615  -0.0261   0.3201   1.0000
  10.000   0.6143   0.11894   0.11151  -0.0257   0.3110   1.0000
  10.250   0.6108   0.12154   0.11408  -0.0263   0.2989   1.0000
  10.500   0.6051   0.12454   0.11703  -0.0273   0.2887   1.0000
  10.750   0.6164   0.12902   0.12152  -0.0274   0.2799   1.0000
  11.000   0.6202   0.13233   0.12483  -0.0280   0.2701   1.0000
  11.250   0.6217   0.13622   0.12870  -0.0291   0.2643   1.0000
  11.500   0.6366   0.14066   0.13321  -0.0289   0.2538   1.0000
  11.750   0.6270   0.14313   0.13560  -0.0308   0.2474   1.0000
  12.000   0.6516   0.14917   0.14171  -0.0300   0.2374   1.0000
  12.250   0.6364   0.15018   0.14265  -0.0325   0.2298   1.0000
  12.500   0.6639   0.15725   0.14979  -0.0316   0.2229   1.0000
  12.750   0.6461   0.15759   0.15004  -0.0346   0.2173   1.0000
  13.000   0.6672   0.16331   0.15582  -0.0341   0.2095   1.0000
  13.250   0.6602   0.16546   0.15791  -0.0365   0.2057   1.0000
  13.500   0.6689   0.16903   0.16149  -0.0371   0.1966   1.0000
  13.750   0.6744   0.17310   0.16555  -0.0384   0.1921   1.0000
  14.000   0.6756   0.17546   0.16789  -0.0401   0.1842   1.0000
  14.250   0.7014   0.18369   0.17621  -0.0393   0.1793   1.0000
  14.500   0.6881   0.18296   0.17541  -0.0428   0.1760   1.0000
  14.750   0.6944   0.18610   0.17855  -0.0442   0.1696   1.0000
  15.000   0.7149   0.19353   0.18601  -0.0439   0.1646   1.0000
  15.250   0.7066   0.19319   0.18562  -0.0473   0.1607   1.0000
  15.500   0.7174   0.19707   0.18952  -0.0480   0.1535   1.0000
  15.750   0.7336   0.20400   0.19645  -0.0483   0.1502   1.0000
  16.000   0.7277   0.20363   0.19603  -0.0519   0.1467   1.0000
  16.250   0.7350   0.20677   0.19918  -0.0534   0.1415   1.0000
  16.500   0.7655   0.21858   0.21106  -0.0516   0.1366   1.0000
  16.750   0.7557   0.21606   0.20847  -0.0557   0.1354   1.0000
  17.000   0.7563   0.21692   0.20930  -0.0587   0.1310   1.0000
  17.250   0.7675   0.22092   0.21335  -0.0595   0.1252   1.0000
  17.500   0.7870   0.23004   0.22250  -0.0592   0.1223   1.0000
  17.750   0.7828   0.22840   0.22080  -0.0631   0.1208   1.0000
  18.000   0.7867   0.23015   0.22253  -0.0657   0.1169   1.0000
  18.250   0.7956   0.23351   0.22590  -0.0673   0.1132   1.0000
  18.500   0.8096   0.23920   0.23162  -0.0677   0.1100   1.0000
  18.750   0.8226   0.24632   0.23874  -0.0686   0.1084   1.0000
  19.000   0.8206   0.24445   0.23682  -0.0726   0.1066   1.0000
  19.250   0.8264   0.24642   0.23878  -0.0751   0.1030   1.0000
  19.500   0.8354   0.24971   0.24209  -0.0768   0.0993   1.0000
  19.750   0.8504   0.25661   0.24906  -0.0767   0.0960   1.0000
  20.000   0.8619   0.26335   0.25578  -0.0779   0.0948   1.0000
   0.000   0.0000   0.01655   0.00687   0.0000   1.0000   1.0000
  -0.250  -0.0007   0.01660   0.00691  -0.0035   1.0000   1.0000
  -0.500  -0.0028   0.01675   0.00703  -0.0067   1.0000   1.0000
  -0.750  -0.0066   0.01699   0.00725  -0.0095   1.0000   1.0000
  -1.000  -0.0124   0.01733   0.00756  -0.0118   1.0000   1.0000
  -1.250  -0.0199   0.01776   0.00798  -0.0135   1.0000   1.0000
  -1.500  -0.0284   0.01830   0.00852  -0.0148   1.0000   1.0000
  -1.750  -0.0593   0.01915   0.00943  -0.0116   1.0000   0.9910
  -2.000  -0.1630   0.02019   0.01079   0.0038   1.0000   0.9489
  -2.250  -0.2806   0.02021   0.01127   0.0196   1.0000   0.9014
  -2.500  -0.3649   0.01960   0.01101   0.0270   1.0000   0.8503
  -2.750  -0.3995   0.01943   0.01091   0.0256   1.0000   0.7977
  -3.000  -0.4227   0.01939   0.01083   0.0220   1.0000   0.7475
  -3.250  -0.4408   0.01953   0.01087   0.0180   1.0000   0.6960
  -3.500  -0.4590   0.01977   0.01097   0.0142   1.0000   0.6438
  -3.750  -0.4775   0.02017   0.01116   0.0108   1.0000   0.5908
  -4.000  -0.4965   0.02070   0.01146   0.0078   1.0000   0.5384
  -4.250  -0.5157   0.02138   0.01190   0.0051   1.0000   0.4870
  -4.500  -0.5354   0.02220   0.01253   0.0028   1.0000   0.4380
  -4.750  -0.5556   0.02314   0.01325   0.0007   1.0000   0.3928
  -5.000  -0.5762   0.02418   0.01409  -0.0011   1.0000   0.3525
  -5.250  -0.5972   0.02535   0.01515  -0.0027   1.0000   0.3164
  -5.500  -0.6189   0.02670   0.01645  -0.0041   1.0000   0.2862
  -5.750  -0.6402   0.02813   0.01788  -0.0055   1.0000   0.2591
  -6.000  -0.6629   0.02975   0.01936  -0.0067   1.0000   0.2379
  -6.250  -0.6829   0.03158   0.02147  -0.0080   1.0000   0.2175
  -6.500  -0.7033   0.03366   0.02374  -0.0092   1.0000   0.2016
  -6.750  -0.7225   0.03577   0.02608  -0.0104   1.0000   0.1867
  -7.000  -0.7412   0.03835   0.02886  -0.0115   1.0000   0.1760
  -7.250  -0.7611   0.04061   0.03110  -0.0125   1.0000   0.1647
  -7.500  -0.7692   0.04452   0.03578  -0.0138   1.0000   0.1588
  -7.750  -0.7814   0.04803   0.03960  -0.0148   1.0000   0.1539
  -8.000  -0.7914   0.05180   0.04359  -0.0156   1.0000   0.1491
  -8.250  -0.7872   0.05702   0.04932  -0.0159   1.0000   0.1477
  -8.500  -0.7800   0.06258   0.05520  -0.0156   1.0000   0.1479
  -8.750  -0.7737   0.06822   0.06102  -0.0149   1.0000   0.1493
  -9.000  -0.7766   0.07352   0.06639  -0.0145   1.0000   0.1507
  -9.250  -0.6853   0.08975   0.08266  -0.0000   1.0000   0.1812
  -9.500  -0.6007   0.11052   0.10311   0.0248   1.0000   0.3282
  -9.750  -0.5916   0.11362   0.10614   0.0260   1.0000   0.3201
 -10.000  -0.6155   0.11906   0.11165   0.0255   1.0000   0.3112
 -10.250  -0.6059   0.12122   0.11375   0.0264   1.0000   0.2998
 -10.500  -0.6040   0.12450   0.11699   0.0272   1.0000   0.2891
 -10.750  -0.6177   0.12916   0.12168   0.0272   1.0000   0.2803
 -11.000  -0.6190   0.13227   0.12478   0.0279   1.0000   0.2702
 -11.250  -0.6211   0.13622   0.12870   0.0289   1.0000   0.2645
 -11.500  -0.6326   0.14022   0.13273   0.0290   1.0000   0.2543
 -11.600  -0.6413   0.14298   0.13553   0.0289   1.0000   0.2519
 -11.700  -0.6288   0.14282   0.13532   0.0303   1.0000   0.2496
 -12.000  -0.6496   0.14901   0.14154   0.0299   1.0000   0.2373
 -12.250  -0.6353   0.15011   0.14258   0.0324   1.0000   0.2303
 -12.500  -0.6647   0.15740   0.14995   0.0313   1.0000   0.2229
 -12.750  -0.6454   0.15753   0.14998   0.0344   1.0000   0.2178
 -13.000  -0.6630   0.16263   0.15514   0.0343   1.0000   0.2100
 -13.250  -0.6592   0.16535   0.15781   0.0363   1.0000   0.2056
 -13.500  -0.6678   0.16892   0.16139   0.0370   1.0000   0.1966
 -13.750  -0.6741   0.17311   0.16556   0.0382   1.0000   0.1922
 -14.000  -0.6743   0.17529   0.16772   0.0400   1.0000   0.1845
 -14.250  -0.7014   0.18373   0.17625   0.0391   1.0000   0.1793
 -14.500  -0.6872   0.18285   0.17529   0.0427   1.0000   0.1761
 -14.750  -0.6934   0.18595   0.17840   0.0441   1.0000   0.1696
 -15.000  -0.7137   0.19332   0.18580   0.0437   1.0000   0.1646
 -15.250  -0.7056   0.19298   0.18541   0.0471   1.0000   0.1605
 -15.500  -0.7159   0.19671   0.18915   0.0480   1.0000   0.1538
 -15.750  -0.7326   0.20377   0.19623   0.0482   1.0000   0.1502
 -16.000  -0.7269   0.20340   0.19581   0.0517   1.0000   0.1468
 -16.250  -0.7340   0.20648   0.19889   0.0533   1.0000   0.1417
 -16.500  -0.7647   0.21833   0.21081   0.0514   1.0000   0.1366
 -16.750  -0.7548   0.21573   0.20814   0.0555   1.0000   0.1354
 -17.000  -0.7553   0.21657   0.20895   0.0585   1.0000   0.1310
 -17.250  -0.7659   0.22035   0.21277   0.0595   1.0000   0.1256
 -17.500  -0.7869   0.22991   0.22237   0.0589   1.0000   0.1223
 -17.750  -0.7818   0.22797   0.22037   0.0629   1.0000   0.1208
 -18.000  -0.7861   0.22971   0.22209   0.0656   1.0000   0.1171
 -18.250  -0.7948   0.23304   0.22543   0.0672   1.0000   0.1132
 -18.500  -0.8086   0.23858   0.23101   0.0676   1.0000   0.1101
 -18.750  -0.8215   0.24566   0.23808   0.0684   1.0000   0.1084
 -19.000  -0.8202   0.24404   0.23642   0.0723   1.0000   0.1068
 -19.250  -0.8255   0.24579   0.23815   0.0750   1.0000   0.1030
 -19.500  -0.8345   0.24902   0.24140   0.0766   1.0000   0.0993
 -19.750  -0.8491   0.25550   0.24795   0.0767   1.0000   0.0961
 -20.000  -0.8615   0.26280   0.25524   0.0777   1.0000   0.0948
