  
       XFOIL         Version 6.99
  
 Calculated polar for: dh4009sm                                        
  
 1 1 Reynolds number fixed          Mach number fixed         
  
 xtrf =   1.000 (top)        1.000 (bottom)  
 Mach =   0.000     Re =     0.050 e 6     Ncrit =   9.000
  
   alpha    CL        CD       CDp       CM     Top_Xtr  Bot_Xtr
  ------ -------- --------- --------- -------- -------- --------
   0.000   0.0285   0.01812   0.00692  -0.0016   1.0000   1.0000
   0.250   0.0285   0.01806   0.00690   0.0024   1.0000   1.0000
   0.500   0.0262   0.01804   0.00690   0.0066   1.0000   1.0000
   0.750   0.0250   0.01807   0.00692   0.0107   1.0000   1.0000
   1.000   0.0271   0.01815   0.00698   0.0141   1.0000   1.0000
   1.250   0.0335   0.01829   0.00710   0.0169   1.0000   1.0000
   1.500   0.0439   0.01848   0.00730   0.0188   1.0000   1.0000
   1.750   0.0570   0.01874   0.00757   0.0203   1.0000   1.0000
   2.000   0.0718   0.01904   0.00791   0.0215   1.0000   1.0000
   2.250   0.0878   0.01939   0.00835   0.0224   1.0000   1.0000
   2.500   0.1044   0.01979   0.00883   0.0231   1.0000   1.0000
   2.750   0.1216   0.02024   0.00939   0.0236   1.0000   1.0000
   3.000   0.1389   0.02075   0.01002   0.0240   1.0000   1.0000
   3.250   0.1563   0.02131   0.01073   0.0243   1.0000   1.0000
   3.500   0.1737   0.02194   0.01160   0.0245   1.0000   1.0000
   3.750   0.1908   0.02264   0.01250   0.0246   1.0000   1.0000
   4.000   0.2076   0.02344   0.01352   0.0245   1.0000   1.0000
   4.250   0.4850   0.02505   0.01306   0.0000   0.1329   1.0000
   4.500   0.5191   0.02684   0.01501   0.0002   0.1233   1.0000
   4.750   0.5518   0.02906   0.01734   0.0002   0.1157   1.0000
   5.000   0.5786   0.03118   0.01968   0.0010   0.1086   1.0000
   5.250   0.6044   0.03361   0.02254   0.0022   0.1089   1.0000
   5.500   0.6273   0.03628   0.02577   0.0041   0.1120   1.0000
   5.750   0.6479   0.03940   0.02933   0.0059   0.1164   1.0000
   6.000   0.6662   0.04239   0.03292   0.0082   0.1232   1.0000
   6.250   0.6811   0.04607   0.03710   0.0103   0.1304   1.0000
   6.500   0.6931   0.04980   0.04150   0.0125   0.1420   1.0000
   6.750   0.7053   0.05442   0.04659   0.0139   0.1584   1.0000
   6.750   0.7053   0.05442   0.04660   0.0139   0.1584   1.0000
   6.850   0.7088   0.05669   0.04916   0.0141   0.1722   1.0000
   6.950   0.7082   0.05967   0.05260   0.0134   0.1985   1.0000
   7.250   0.6195   0.07841   0.07198  -0.0153   0.3997   1.0000
   7.700   0.5223   0.06904   0.06283   0.0034   0.3172   1.0000
   8.250   0.5888   0.09625   0.08944  -0.0240   0.4403   1.0000
   8.500   0.5893   0.09944   0.09263  -0.0229   0.4201   1.0000
   8.350   0.5840   0.09713   0.09028  -0.0234   0.4308   1.0000
   8.750   0.5984   0.10301   0.09620  -0.0220   0.3996   1.0000
   8.500   0.5893   0.09944   0.09263  -0.0229   0.4201   1.0000
   8.700   0.5926   0.10205   0.09523  -0.0221   0.4034   1.0000
   9.000   0.6042   0.10664   0.09980  -0.0210   0.3795   1.0000
   9.250   0.6253   0.11115   0.10435  -0.0191   0.3541   1.0000
   9.500   0.6124   0.11315   0.10625  -0.0189   0.3351   1.0000
   9.250   0.6253   0.11115   0.10435  -0.0191   0.3541   1.0000
   9.350   0.6086   0.11106   0.10417  -0.0195   0.3481   1.0000
   9.450   0.6191   0.11309   0.10623  -0.0187   0.3387   1.0000
   9.750   0.6340   0.11789   0.11103  -0.0170   0.3121   1.0000
  10.000   0.6283   0.12065   0.11373  -0.0171   0.2967   1.0000
  10.250   0.6283   0.12391   0.11695  -0.0170   0.2816   1.0000
  10.500   0.6314   0.12749   0.12050  -0.0170   0.2677   1.0000
  10.250   0.6283   0.12391   0.11695  -0.0171   0.2816   1.0000
  10.350   0.6307   0.12518   0.11822  -0.0168   0.2745   1.0000
  10.450   0.6389   0.12753   0.12057  -0.0164   0.2698   1.0000
  10.750   0.6365   0.13128   0.12427  -0.0169   0.2546   1.0000
  11.000   0.6447   0.13544   0.12842  -0.0166   0.2419   1.0000
  11.250   0.6562   0.14001   0.13306  -0.0160   0.2290   1.0000
  11.500   0.6446   0.14179   0.13471  -0.0179   0.2192   1.0000
  11.750   0.6447   0.14534   0.13827  -0.0188   0.2107   1.0000
  12.000   0.6591   0.15045   0.14340  -0.0182   0.2008   1.0000
  12.250   0.6537   0.15266   0.14556  -0.0199   0.1918   1.0000
  12.500   0.6582   0.15674   0.14962  -0.0207   0.1854   1.0000
  12.750   0.6783   0.16292   0.15584  -0.0194   0.1741   1.0000
  13.000   0.6628   0.16349   0.15631  -0.0229   0.1701   1.0000
  13.250   0.6813   0.16960   0.16247  -0.0219   0.1600   1.0000
  13.500   0.6704   0.17039   0.16318  -0.0251   0.1556   1.0000
  13.750   0.6903   0.17707   0.16991  -0.0239   0.1463   1.0000
  14.000   0.6799   0.17751   0.17026  -0.0273   0.1428   1.0000
  14.250   0.6913   0.18196   0.17474  -0.0276   0.1349   1.0000
  14.500   0.6975   0.18644   0.17920  -0.0288   0.1320   1.0000
  14.750   0.6941   0.18764   0.18035  -0.0316   0.1275   1.0000
  15.000   0.7058   0.19231   0.18506  -0.0318   0.1214   1.0000
  15.250   0.7151   0.19764   0.19042  -0.0328   0.1187   1.0000
  15.500   0.7119   0.19822   0.19096  -0.0360   0.1155   1.0000
  15.750   0.7181   0.20140   0.19414  -0.0375   0.1106   1.0000
  16.000   0.7422   0.21177   0.20457  -0.0359   0.1058   1.0000
  16.250   0.7363   0.21073   0.20347  -0.0396   0.1049   1.0000
  16.500   0.7369   0.21177   0.20446  -0.0426   0.1018   1.0000
  16.750   0.7435   0.21487   0.20757  -0.0444   0.0977   1.0000
  17.000   0.7570   0.22079   0.21353  -0.0444   0.0937   1.0000
  17.250   0.7672   0.22679   0.21952  -0.0455   0.0920   1.0000
  17.500   0.7664   0.22627   0.21895  -0.0491   0.0906   1.0000
  17.750   0.7712   0.22826   0.22093  -0.0518   0.0872   1.0000
  18.000   0.7792   0.23161   0.22428  -0.0534   0.0833   1.0000
  18.250   0.8019   0.24484   0.23758  -0.0512   0.0789   1.0000
  18.500   0.8002   0.24293   0.23562  -0.0550   0.0784   1.0000
  18.750   0.8023   0.24262   0.23527  -0.0586   0.0771   1.0000
  19.000   0.8083   0.24469   0.23733  -0.0614   0.0745   1.0000
  19.250   0.8159   0.24774   0.24039  -0.0634   0.0718   1.0000
  19.500   0.8244   0.25128   0.24394  -0.0650   0.0693   1.0000
  19.750   0.8352   0.25688   0.24964  -0.0657   0.0669   1.0000
  20.000   0.8508   0.26838   0.26116  -0.0653   0.0654   1.0000
   0.000   0.0285   0.01812   0.00692  -0.0016   1.0000   1.0000
  -0.250   0.0249   0.01823   0.00699  -0.0048   1.0000   1.0000
  -0.500   0.0181   0.01838   0.00711  -0.0076   1.0000   1.0000
  -0.750   0.0090   0.01859   0.00729  -0.0100   1.0000   1.0000
  -1.000  -0.0017   0.01883   0.00753  -0.0121   1.0000   1.0000
  -1.250  -0.0139   0.01911   0.00782  -0.0140   1.0000   1.0000
  -1.500  -0.0272   0.01942   0.00820  -0.0156   1.0000   1.0000
  -1.750  -0.0415   0.01976   0.00860  -0.0170   1.0000   1.0000
  -2.000  -0.0565   0.02015   0.00906  -0.0182   1.0000   1.0000
  -2.250  -0.0722   0.02056   0.00959  -0.0193   1.0000   1.0000
  -2.500  -0.0884   0.02102   0.01017  -0.0202   1.0000   1.0000
  -2.750  -0.1050   0.02151   0.01084  -0.0210   1.0000   1.0000
  -3.000  -0.1219   0.02204   0.01162  -0.0218   1.0000   1.0000
  -3.250  -0.1391   0.02260   0.01247  -0.0224   1.0000   1.0000
  -3.750  -0.4261   0.02630   0.01424  -0.0009   1.0000   0.1049
  -4.000  -0.4589   0.02801   0.01607  -0.0016   1.0000   0.1047
  -4.250  -0.4883   0.02987   0.01813  -0.0024   1.0000   0.1032
  -4.500  -0.5155   0.03192   0.02048  -0.0034   1.0000   0.1035
  -4.750  -0.5424   0.03452   0.02339  -0.0045   1.0000   0.1083
  -5.000  -0.5686   0.03670   0.02622  -0.0063   1.0000   0.1180
  -5.250  -0.5935   0.03941   0.02952  -0.0080   1.0000   0.1311
  -5.500  -0.6179   0.04282   0.03342  -0.0094   1.0000   0.1494
  -5.750  -0.6431   0.04606   0.03765  -0.0108   1.0000   0.1866
  -6.000  -0.6683   0.05093   0.04366  -0.0091   1.0000   0.2576
  -6.500  -0.6243   0.06868   0.06241   0.0126   1.0000   0.4079
  -6.250  -0.6671   0.06004   0.05376   0.0022   1.0000   0.3614
  -6.350  -0.6527   0.06408   0.05788   0.0074   1.0000   0.3889
  -6.450  -0.6340   0.06734   0.06111   0.0113   1.0000   0.4043
  -6.750  -0.5703   0.07607   0.06946   0.0212   1.0000   0.4737
  -7.750  -0.5225   0.09208   0.08505   0.0280   1.0000   0.5462
  -8.000  -0.5351   0.09552   0.08847   0.0269   1.0000   0.5192
  -8.250  -0.5499   0.09897   0.09196   0.0255   1.0000   0.4887
  -8.500  -0.5781   0.10365   0.09667   0.0241   1.0000   0.4560
  -8.750  -0.5755   0.10567   0.09863   0.0218   1.0000   0.4245
  -8.500  -0.5781   0.10365   0.09667   0.0241   1.0000   0.4560
  -8.600  -0.5842   0.10500   0.09802   0.0232   1.0000   0.4422
  -8.700  -0.5903   0.10635   0.09937   0.0222   1.0000   0.4284
  -9.000  -0.5866   0.10876   0.10171   0.0198   1.0000   0.3920
  -9.250  -0.6140   0.11339   0.10637   0.0172   1.0000   0.3591
  -9.500  -0.6236   0.11677   0.10974   0.0152   1.0000   0.3315
  -9.750  -0.6092   0.11863   0.11149   0.0152   1.0000   0.3124
  -9.500  -0.6236   0.11678   0.10974   0.0152   1.0000   0.3315
  -9.600  -0.6056   0.11664   0.10952   0.0159   1.0000   0.3264
  -9.700  -0.6156   0.11855   0.11144   0.0149   1.0000   0.3160
 -10.000  -0.6253   0.12284   0.11571   0.0133   1.0000   0.2888
  -9.750  -0.6092   0.11863   0.11149   0.0152   1.0000   0.3124
  -9.850  -0.6199   0.12063   0.11351   0.0142   1.0000   0.3023
  -9.950  -0.6334   0.12277   0.11567   0.0127   1.0000   0.2898
 -10.250  -0.6195   0.12548   0.11828   0.0134   1.0000   0.2713
 -10.500  -0.6410   0.13029   0.12317   0.0110   1.0000   0.2479
 -10.750  -0.6399   0.13351   0.12633   0.0112   1.0000   0.2335
 -11.000  -0.6424   0.13706   0.12985   0.0112   1.0000   0.2196
 -11.250  -0.6490   0.14106   0.13383   0.0108   1.0000   0.2060
 -11.500  -0.6380   0.14307   0.13576   0.0130   1.0000   0.1969
 -11.750  -0.6396   0.14679   0.13943   0.0138   1.0000   0.1883
 -12.000  -0.6545   0.15190   0.14456   0.0128   1.0000   0.1780
 -12.250  -0.6454   0.15385   0.14643   0.0153   1.0000   0.1707
 -12.500  -0.6562   0.15867   0.15126   0.0152   1.0000   0.1636
 -12.750  -0.6534   0.16114   0.15368   0.0171   1.0000   0.1560
 -13.000  -0.6647   0.16624   0.15877   0.0170   1.0000   0.1501
 -13.250  -0.6599   0.16825   0.16073   0.0194   1.0000   0.1441
 -13.500  -0.6795   0.17489   0.16740   0.0181   1.0000   0.1372
 -13.750  -0.6699   0.17575   0.16818   0.0216   1.0000   0.1340
 -14.000  -0.6760   0.17919   0.17162   0.0226   1.0000   0.1275
 -14.250  -0.6896   0.18525   0.17774   0.0225   1.0000   0.1233
 -14.500  -0.6839   0.18610   0.17852   0.0256   1.0000   0.1200
 -14.750  -0.6899   0.18943   0.18185   0.0269   1.0000   0.1145
 -15.000  -0.7094   0.19738   0.18983   0.0260   1.0000   0.1100
 -15.250  -0.7033   0.19734   0.18972   0.0294   1.0000   0.1084
 -15.500  -0.7057   0.19955   0.19190   0.0317   1.0000   0.1042
 -15.750  -0.7149   0.20356   0.19593   0.0326   1.0000   0.0997
 -16.000  -0.7331   0.21211   0.20450   0.0319   1.0000   0.0965
 -16.250  -0.7294   0.21168   0.20401   0.0354   1.0000   0.0954
 -16.500  -0.7317   0.21325   0.20555   0.0382   1.0000   0.0923
 -16.750  -0.7386   0.21642   0.20871   0.0398   1.0000   0.0884
 -17.000  -0.7648   0.22924   0.22161   0.0374   1.0000   0.0831
 -17.250  -0.7613   0.22789   0.22019   0.0410   1.0000   0.0826
 -17.500  -0.7615   0.22764   0.21990   0.0445   1.0000   0.0812
 -17.750  -0.7666   0.22969   0.22194   0.0471   1.0000   0.0782
 -18.000  -0.7742   0.23286   0.22510   0.0489   1.0000   0.0749
 -18.250  -0.7838   0.23711   0.22938   0.0499   1.0000   0.0720
 -18.500  -0.8049   0.25036   0.24274   0.0483   1.0000   0.0695
 -18.750  -0.8050   0.24911   0.24144   0.0517   1.0000   0.0691
 -19.000  -0.8074   0.24870   0.24099   0.0552   1.0000   0.0684
 -19.250  -0.8126   0.24990   0.24217   0.0582   1.0000   0.0669
 -19.500  -0.8197   0.25244   0.24471   0.0606   1.0000   0.0648
 -19.750  -0.8275   0.25545   0.24773   0.0627   1.0000   0.0627
 -20.000  -0.8356   0.25874   0.25102   0.0645   1.0000   0.0606
