  
       XFOIL         Version 6.99
  
 Calculated polar for: E212  (10.55%)                                  
  
 1 1 Reynolds number fixed          Mach number fixed         
  
 xtrf =   1.000 (top)        1.000 (bottom)  
 Mach =   0.000     Re =     0.050 e 6     Ncrit =   9.000
  
   alpha    CL        CD       CDp       CM     Top_Xtr  Bot_Xtr
  ------ -------- --------- --------- -------- -------- --------
   0.000   0.0157   0.02247   0.01350  -0.0405   1.0000   1.0000
   0.250   0.0470   0.02308   0.01385  -0.0436   1.0000   1.0000
   0.500   0.0742   0.02375   0.01432  -0.0457   1.0000   1.0000
   0.750   0.0987   0.02449   0.01488  -0.0472   1.0000   1.0000
   1.000   0.1215   0.02529   0.01555  -0.0484   1.0000   1.0000
   1.250   0.1429   0.02616   0.01631  -0.0494   1.0000   1.0000
   1.500   0.1856   0.02753   0.01758  -0.0542   0.9887   1.0000
   1.750   0.2397   0.02902   0.01897  -0.0607   0.9718   1.0000
   2.000   0.2856   0.03010   0.02001  -0.0656   0.9531   1.0000
   2.250   0.3351   0.03116   0.02105  -0.0707   0.9353   1.0000
   2.500   0.3811   0.03206   0.02195  -0.0750   0.9172   1.0000
   2.750   0.4215   0.03280   0.02273  -0.0782   0.8976   1.0000
   3.000   0.4674   0.03345   0.02343  -0.0819   0.8788   1.0000
   3.250   0.5172   0.03392   0.02399  -0.0858   0.8609   1.0000
   3.500   0.5508   0.03444   0.02462  -0.0872   0.8397   1.0000
   3.750   0.5949   0.03468   0.02498  -0.0897   0.8201   1.0000
   4.000   0.6469   0.03450   0.02497  -0.0927   0.8018   1.0000
   4.250   0.6816   0.03468   0.02532  -0.0934   0.7800   1.0000
   4.500   0.7320   0.03403   0.02487  -0.0953   0.7601   1.0000
   4.750   0.7967   0.03252   0.02366  -0.0983   0.7416   1.0000
   5.000   0.8344   0.03206   0.02340  -0.0982   0.7171   1.0000
   5.250   0.8945   0.03027   0.02188  -0.0997   0.6941   1.0000
   5.500   0.9418   0.02908   0.02087  -0.0999   0.6660   1.0000
   5.750   0.9801   0.02839   0.02029  -0.0990   0.6340   1.0000
   6.000   1.0098   0.02821   0.02022  -0.0973   0.5987   1.0000
   6.250   1.0436   0.02787   0.01985  -0.0959   0.5610   1.0000
   6.500   1.0671   0.02815   0.02012  -0.0936   0.5209   1.0000
   6.750   1.0910   0.02850   0.02039  -0.0914   0.4791   1.0000
   7.000   1.1125   0.02909   0.02082  -0.0890   0.4360   1.0000
   7.250   1.1315   0.02992   0.02145  -0.0865   0.3923   1.0000
   7.500   1.1490   0.03099   0.02228  -0.0840   0.3490   1.0000
   7.750   1.1627   0.03236   0.02355  -0.0812   0.3079   1.0000
   8.000   1.1775   0.03396   0.02503  -0.0787   0.2692   1.0000
   8.250   1.1927   0.03576   0.02660  -0.0764   0.2329   1.0000
   8.500   1.2055   0.03780   0.02848  -0.0739   0.1991   1.0000
   8.750   1.2132   0.03974   0.03034  -0.0709   0.1683   1.0000
   9.000   1.2228   0.04200   0.03246  -0.0684   0.1415   1.0000
   9.250   1.2358   0.04485   0.03539  -0.0663   0.1220   1.0000
   9.500   1.2517   0.04827   0.03902  -0.0647   0.1095   1.0000
   9.750   1.2656   0.05176   0.04271  -0.0631   0.1011   1.0000
  10.000   1.2730   0.05524   0.04662  -0.0608   0.0956   1.0000
  10.250   1.2908   0.05940   0.05084  -0.0600   0.0915   1.0000
  10.500   1.2908   0.06397   0.05583  -0.0576   0.0903   1.0000
  10.750   1.2814   0.06818   0.06053  -0.0544   0.0899   1.0000
  11.000   1.2677   0.07244   0.06520  -0.0514   0.0897   1.0000
  11.250   1.2497   0.07655   0.06961  -0.0484   0.0898   1.0000
  11.500   1.2297   0.08092   0.07423  -0.0460   0.0900   1.0000
  11.750   1.2092   0.08572   0.07925  -0.0447   0.0903   1.0000
  12.000   1.1892   0.09104   0.08474  -0.0444   0.0907   1.0000
  12.250   1.0786   0.10465   0.09883  -0.0537   0.0994   1.0000
  12.500   1.0511   0.11455   0.10876  -0.0596   0.1019   1.0000
  12.750   1.0358   0.12344   0.11764  -0.0641   0.1032   1.0000
  12.750   1.0279   0.12537   0.11960  -0.0661   0.1048   1.0000
  12.850   1.0285   0.12761   0.12184  -0.0666   0.1043   1.0000
  13.250   0.9270   0.17642   0.17027  -0.1039   0.2446   1.0000
  13.500   0.9125   0.17928   0.17307  -0.1076   0.2411   1.0000
  13.750   0.9246   0.18407   0.17789  -0.1082   0.2326   1.0000
  14.000   0.9307   0.18934   0.18315  -0.1100   0.2293   1.0000
  14.250   0.9256   0.19181   0.18559  -0.1128   0.2216   1.0000
  14.500   0.9440   0.19804   0.19185  -0.1128   0.2151   1.0000
  14.750   0.9370   0.19982   0.19359  -0.1161   0.2080   1.0000
  15.000   0.9686   0.20865   0.20252  -0.1146   0.2014   1.0000
  15.250   0.9510   0.20820   0.20199  -0.1195   0.1977   1.0000
  15.500   0.9582   0.21185   0.20564  -0.1212   0.1913   1.0000
  15.750   0.9838   0.22041   0.21426  -0.1204   0.1869   1.0000
  16.000   0.9706   0.21972   0.21349  -0.1253   0.1830   1.0000
  16.250   0.9803   0.22351   0.21730  -0.1266   0.1762   1.0000
  16.500   0.9956   0.22989   0.22370  -0.1271   0.1721   1.0000
  16.750   0.9912   0.23046   0.22422  -0.1312   0.1667   1.0000
  17.000   1.0068   0.23561   0.22942  -0.1314   0.1604   1.0000
  17.250   1.0171   0.24107   0.23487  -0.1330   0.1580   1.0000
  17.500   1.0138   0.24141   0.23516  -0.1372   0.1535   1.0000
  17.750   1.0234   0.24512   0.23889  -0.1388   0.1486   1.0000
  18.000   1.0523   0.25710   0.25098  -0.1367   0.1447   1.0000
  18.250   1.0421   0.25401   0.24780  -0.1423   0.1433   1.0000
  18.500   1.0443   0.25545   0.24922  -0.1457   0.1387   1.0000
  18.750   1.0545   0.25926   0.25306  -0.1472   0.1343   1.0000
  19.000   1.0789   0.27077   0.26463  -0.1456   0.1308   1.0000
  19.250   1.0720   0.26764   0.26143  -0.1510   0.1293   1.0000
  19.500   1.0756   0.26905   0.26283  -0.1544   0.1247   1.0000
  19.750   1.0862   0.27297   0.26678  -0.1556   0.1201   1.0000
  20.000   1.1075   0.28417   0.27804  -0.1545   0.1171   1.0000
   0.000   0.0157   0.02247   0.01350  -0.0405   1.0000   1.0000
  -0.250  -0.0231   0.02197   0.01333  -0.0353   1.0000   1.0000
  -0.500  -0.0715   0.02175   0.01347  -0.0269   1.0000   0.9886
  -0.750  -0.0911   0.02267   0.01430  -0.0271   1.0000   0.8828
  -1.000  -0.0935   0.02314   0.01468  -0.0321   1.0000   0.8292
  -1.250  -0.0991   0.02341   0.01492  -0.0365   1.0000   0.7850
  -1.500  -0.1092   0.02358   0.01507  -0.0401   1.0000   0.7428
  -1.750  -0.1208   0.02372   0.01518  -0.0434   1.0000   0.7031
  -2.000  -0.1335   0.02382   0.01526  -0.0467   1.0000   0.6654
  -2.250  -0.1486   0.02393   0.01535  -0.0495   1.0000   0.6258
  -2.500  -0.1634   0.02403   0.01542  -0.0524   1.0000   0.5880
  -2.750  -0.1812   0.02419   0.01555  -0.0547   1.0000   0.5467
  -3.000  -0.1975   0.02432   0.01556  -0.0575   1.0000   0.5084
  -3.250  -0.2172   0.02454   0.01574  -0.0594   1.0000   0.4638
  -3.500  -0.2371   0.02482   0.01594  -0.0613   1.0000   0.4181
  -3.750  -0.2572   0.02516   0.01613  -0.0632   1.0000   0.3708
  -4.000  -0.2803   0.02574   0.01662  -0.0643   1.0000   0.3162
  -4.250  -0.3025   0.02645   0.01703  -0.0655   1.0000   0.2627
  -4.500  -0.3273   0.02749   0.01786  -0.0659   1.0000   0.2012
  -4.750  -0.3529   0.02904   0.01924  -0.0658   1.0000   0.1575
  -5.000  -0.3804   0.03122   0.02168  -0.0656   1.0000   0.1353
  -5.250  -0.4070   0.03370   0.02449  -0.0650   1.0000   0.1224
  -5.500  -0.4301   0.03633   0.02714  -0.0651   1.0000   0.1159
  -5.750  -0.4574   0.04064   0.03229  -0.0630   1.0000   0.1139
  -6.000  -0.4797   0.04559   0.03793  -0.0603   1.0000   0.1128
  -6.250  -0.4957   0.05105   0.04390  -0.0572   1.0000   0.1130
  -6.500  -0.5053   0.05650   0.04968  -0.0546   1.0000   0.1140
  -6.750  -0.5088   0.06252   0.05600  -0.0514   1.0000   0.1178
  -7.000  -0.4964   0.07147   0.06512  -0.0449   1.0000   0.1287
  -7.000  -0.4964   0.07147   0.06512  -0.0449   1.0000   0.1287
  -7.100  -0.5001   0.07273   0.06637  -0.0458   1.0000   0.1296
  -7.500  -0.3889   0.09427   0.08755  -0.0192   1.0000   0.2866
  -7.750  -0.3906   0.09725   0.09047  -0.0201   1.0000   0.2824
  -8.000  -0.4121   0.10259   0.09583  -0.0211   1.0000   0.2784
  -8.250  -0.3837   0.10257   0.09561  -0.0214   1.0000   0.2707
  -8.500  -0.4079   0.10794   0.10101  -0.0228   1.0000   0.2632
  -8.750  -0.3849   0.10823   0.10113  -0.0225   1.0000   0.2557
  -9.000  -0.4046   0.11317   0.10608  -0.0238   1.0000   0.2477
  -9.250  -0.3880   0.11397   0.10674  -0.0232   1.0000   0.2408
  -9.500  -0.4154   0.11998   0.11281  -0.0249   1.0000   0.2332
  -9.750  -0.3923   0.11987   0.11254  -0.0236   1.0000   0.2270
 -10.000  -0.4062   0.12396   0.11664  -0.0244   1.0000   0.2201
 -10.250  -0.4050   0.12701   0.11962  -0.0240   1.0000   0.2166
 -10.500  -0.4008   0.12888   0.12142  -0.0235   1.0000   0.2091
 -10.750  -0.4319   0.13628   0.12888  -0.0253   1.0000   0.2035
 -11.000  -0.4086   0.13540   0.12786  -0.0232   1.0000   0.2001
 -11.250  -0.4115   0.13811   0.13053  -0.0229   1.0000   0.1931
 -11.500  -0.4363   0.14505   0.13750  -0.0242   1.0000   0.1884
 -11.750  -0.4183   0.14446   0.13680  -0.0221   1.0000   0.1848
 -12.000  -0.4224   0.14724   0.13955  -0.0218   1.0000   0.1784
 -12.250  -0.4426   0.15367   0.14600  -0.0227   1.0000   0.1734
 -12.500  -0.4300   0.15352   0.14575  -0.0208   1.0000   0.1698
 -12.750  -0.4358   0.15645   0.14866  -0.0205   1.0000   0.1632
 -13.000  -0.4565   0.16337   0.15562  -0.0214   1.0000   0.1589
 -13.250  -0.4443   0.16284   0.15499  -0.0192   1.0000   0.1559
 -13.500  -0.4475   0.16531   0.15745  -0.0183   1.0000   0.1507
 -13.750  -0.4622   0.17024   0.16239  -0.0188   1.0000   0.1461
 -14.000  -0.4708   0.17504   0.16715  -0.0183   1.0000   0.1441
 -14.250  -0.4642   0.17499   0.16704  -0.0162   1.0000   0.1413
 -14.500  -0.4682   0.17752   0.16954  -0.0151   1.0000   0.1366
 -14.750  -0.4791   0.18159   0.17362  -0.0150   1.0000   0.1326
 -15.000  -0.4990   0.18970   0.18174  -0.0156   1.0000   0.1301
 -15.250  -0.4903   0.18830   0.18027  -0.0130   1.0000   0.1287
 -15.500  -0.4915   0.18975   0.18168  -0.0113   1.0000   0.1250
 -15.750  -0.4983   0.19269   0.18463  -0.0104   1.0000   0.1212
 -16.000  -0.5107   0.19739   0.18934  -0.0103   1.0000   0.1177
 -16.250  -0.5248   0.20431   0.19626  -0.0102   1.0000   0.1158
 -16.500  -0.5207   0.20322   0.19510  -0.0076   1.0000   0.1144
 -16.750  -0.5236   0.20470   0.19656  -0.0057   1.0000   0.1105
 -17.000  -0.5312   0.20765   0.19950  -0.0047   1.0000   0.1069
 -17.250  -0.5446   0.21297   0.20485  -0.0048   1.0000   0.1033
 -17.500  -0.5583   0.22024   0.21210  -0.0045   1.0000   0.1018
 -17.750  -0.5559   0.21881   0.21061  -0.0017   1.0000   0.1009
 -18.000  -0.5592   0.21986   0.21163   0.0005   1.0000   0.0986
 -18.250  -0.5656   0.22237   0.21414   0.0021   1.0000   0.0956
 -18.500  -0.5736   0.22539   0.21718   0.0033   1.0000   0.0930
 -18.750  -0.5834   0.22932   0.22112   0.0040   1.0000   0.0906
 -19.000  -0.6063   0.24254   0.23437   0.0028   1.0000   0.0884
 -19.250  -0.6043   0.24011   0.23189   0.0057   1.0000   0.0880
 -19.500  -0.6056   0.23920   0.23094   0.0084   1.0000   0.0871
 -19.750  -0.6106   0.24039   0.23211   0.0107   1.0000   0.0852
 -20.000  -0.6175   0.24283   0.23454   0.0125   1.0000   0.0829
