  
       XFOIL         Version 6.99
  
 Calculated polar for: HQ-2.0/9  9.0%   smoothed                       
  
 1 1 Reynolds number fixed          Mach number fixed         
  
 xtrf =   1.000 (top)        1.000 (bottom)  
 Mach =   0.000     Re =     0.050 e 6     Ncrit =   9.000
  
   alpha    CL        CD       CDp       CM     Top_Xtr  Bot_Xtr
  ------ -------- --------- --------- -------- -------- --------
   0.000   0.0059   0.01893   0.00879  -0.0198   1.0000   1.0000
   0.250   0.0272   0.01930   0.00901  -0.0198   1.0000   1.0000
   0.500   0.0482   0.01972   0.00930  -0.0198   1.0000   1.0000
   0.750   0.0690   0.02017   0.00962  -0.0199   1.0000   1.0000
   1.000   0.0894   0.02067   0.01003  -0.0199   1.0000   1.0000
   1.250   0.1095   0.02122   0.01051  -0.0200   1.0000   1.0000
   1.500   0.1292   0.02182   0.01105  -0.0200   1.0000   1.0000
   1.750   0.1485   0.02247   0.01167  -0.0201   1.0000   1.0000
   2.000   0.1674   0.02319   0.01235  -0.0202   1.0000   1.0000
   2.250   0.1861   0.02397   0.01313  -0.0205   0.9998   1.0000
   2.500   0.2448   0.02557   0.01480  -0.0282   0.9792   1.0000
   2.750   0.3058   0.02703   0.01636  -0.0357   0.9563   1.0000
   3.000   0.3567   0.02807   0.01753  -0.0411   0.9320   1.0000
   3.250   0.4077   0.02898   0.01861  -0.0459   0.9078   1.0000
   3.500   0.4619   0.02967   0.01954  -0.0508   0.8832   1.0000
   3.750   0.5185   0.03002   0.02016  -0.0554   0.8574   1.0000
   4.000   0.5730   0.02998   0.02047  -0.0589   0.8294   1.0000
   4.250   0.6325   0.02937   0.02022  -0.0620   0.8007   1.0000
   4.500   0.6764   0.02870   0.01987  -0.0621   0.7693   1.0000
   4.750   0.7205   0.02763   0.01917  -0.0614   0.7359   1.0000
   5.000   0.7640   0.02613   0.01796  -0.0596   0.6995   1.0000
   5.250   0.7974   0.02488   0.01690  -0.0565   0.6545   1.0000
   5.500   0.8264   0.02369   0.01577  -0.0526   0.5998   1.0000
   5.750   0.8495   0.02314   0.01502  -0.0486   0.5347   1.0000
   6.000   0.8681   0.02352   0.01501  -0.0450   0.4633   1.0000
   6.250   0.8832   0.02468   0.01574  -0.0418   0.3880   1.0000
   6.500   0.8971   0.02638   0.01693  -0.0389   0.3124   1.0000
   6.750   0.9143   0.02866   0.01876  -0.0367   0.2485   1.0000
   7.000   0.9337   0.03084   0.02073  -0.0351   0.2042   1.0000
   7.250   0.9577   0.03338   0.02324  -0.0340   0.1752   1.0000
   7.500   0.9788   0.03580   0.02565  -0.0328   0.1517   1.0000
   7.750   1.0004   0.03881   0.02892  -0.0315   0.1354   1.0000
   8.000   1.0187   0.04187   0.03226  -0.0301   0.1217   1.0000
   8.250   1.0356   0.04534   0.03598  -0.0287   0.1119   1.0000
   8.500   1.0518   0.04858   0.03944  -0.0274   0.1034   1.0000
   8.750   1.0619   0.05333   0.04468  -0.0258   0.1009   1.0000
   9.000   1.0628   0.05787   0.04986  -0.0236   0.0998   1.0000
   9.250   1.0589   0.06251   0.05502  -0.0216   0.0991   1.0000
   9.500   1.0497   0.06730   0.06023  -0.0198   0.0988   1.0000
   9.750   1.0371   0.07214   0.06538  -0.0184   0.0991   1.0000
  10.000   1.0225   0.07701   0.07047  -0.0175   0.0998   1.0000
  10.250   1.0071   0.08175   0.07532  -0.0166   0.1006   1.0000
  10.500   0.9929   0.08687   0.08052  -0.0166   0.1013   1.0000
  10.500   0.9849   0.08687   0.08060  -0.0169   0.1027   1.0000
  10.600   0.9855   0.08893   0.08266  -0.0169   0.1022   1.0000
  11.000   0.9281   0.10311   0.09687  -0.0249   0.1148   1.0000
  10.750   0.9309   0.09679   0.09055  -0.0232   0.1136   1.0000
  10.850   0.9300   0.09922   0.09298  -0.0238   0.1142   1.0000
  10.950   0.9274   0.10190   0.09566  -0.0247   0.1146   1.0000
  11.500   0.6769   0.14129   0.13512  -0.0548   0.2942   1.0000
  11.750   0.6511   0.14242   0.13620  -0.0565   0.2895   1.0000
  11.500   0.6769   0.14129   0.13512  -0.0548   0.2942   1.0000
  11.600   0.6660   0.14191   0.13571  -0.0556   0.2935   1.0000
  11.700   0.6544   0.14211   0.13589  -0.0563   0.2913   1.0000
  12.000   0.6611   0.14697   0.14080  -0.0567   0.2787   1.0000
  12.250   0.6678   0.15091   0.14477  -0.0569   0.2653   1.0000
  12.500   0.6526   0.15164   0.14552  -0.0580   0.2569   1.0000
  12.750   0.6629   0.15661   0.15052  -0.0585   0.2509   1.0000
  13.000   0.6544   0.15795   0.15188  -0.0596   0.2422   1.0000
  13.250   0.6575   0.16156   0.15551  -0.0605   0.2354   1.0000
  13.500   0.6707   0.16647   0.16048  -0.0606   0.2234   1.0000
  13.750   0.6581   0.16686   0.16084  -0.0625   0.2164   1.0000
  14.000   0.6767   0.17329   0.16735  -0.0626   0.2098   1.0000
  14.250   0.6627   0.17322   0.16727  -0.0648   0.2045   1.0000
  14.500   0.6866   0.18074   0.17484  -0.0644   0.1963   1.0000
  14.750   0.6698   0.17986   0.17394  -0.0671   0.1927   1.0000
  15.000   0.6915   0.18694   0.18107  -0.0666   0.1825   1.0000
  15.250   0.6767   0.18619   0.18030  -0.0695   0.1792   1.0000
  15.500   0.6862   0.19022   0.18438  -0.0700   0.1707   1.0000
  15.750   0.6900   0.19414   0.18829  -0.0714   0.1678   1.0000
  16.000   0.6857   0.19541   0.18957  -0.0736   0.1626   1.0000
  16.250   0.6980   0.20031   0.19452  -0.0739   0.1567   1.0000
  16.500   0.7000   0.20388   0.19808  -0.0756   0.1541   1.0000
  16.750   0.6969   0.20534   0.19955  -0.0778   0.1493   1.0000
  17.000   0.7122   0.21124   0.20550  -0.0778   0.1426   1.0000
  17.250   0.7097   0.21335   0.20760  -0.0800   0.1402   1.0000
  17.500   0.7088   0.21528   0.20954  -0.0821   0.1352   1.0000
  17.750   0.7243   0.22149   0.21585  -0.0819   0.1290   1.0000
  18.000   0.7238   0.22414   0.21848  -0.0840   0.1273   1.0000
  18.250   0.7214   0.22562   0.21997  -0.0865   0.1236   1.0000
  18.500   0.7263   0.22900   0.22337  -0.0878   0.1192   1.0000
  18.750   0.7473   0.23844   0.23288  -0.0871   0.1150   1.0000
  19.000   0.7409   0.23846   0.23287  -0.0900   0.1142   1.0000
  19.250   0.7384   0.23981   0.23424  -0.0925   0.1115   1.0000
  19.500   0.7420   0.24307   0.23752  -0.0941   0.1075   1.0000
  19.750   0.7493   0.24727   0.24175  -0.0951   0.1040   1.0000
  20.000   0.7629   0.25518   0.24968  -0.0953   0.1016   1.0000
   0.000  -0.0228   0.00490  -0.00420  -0.0155   1.0000   1.0000
  -0.250  -0.0429   0.00465  -0.00428  -0.0152   1.0000   1.0000
  -0.500  -0.0633   0.00445  -0.00425  -0.0148   1.0000   1.0000
  -0.750  -0.0835   0.00429  -0.00419  -0.0144   1.0000   1.0000
  -1.000  -0.1027   0.00419  -0.00405  -0.0140   1.0000   1.0000
  -1.250  -0.1178   0.00415  -0.00383  -0.0141   1.0000   1.0000
  -1.500  -0.1209   0.00420  -0.00357  -0.0157   1.0000   1.0000
  -1.750  -0.1097   0.00444  -0.00320  -0.0193   1.0000   1.0000
  -2.000  -0.0963   0.00478  -0.00277  -0.0232   1.0000   1.0000
  -2.250  -0.1181   0.01849   0.01036  -0.0276   1.0000   1.0000
  -2.750  -0.2193   0.01862   0.00997  -0.0324   1.0000   0.4390
  -3.000  -0.2403   0.02171   0.01123  -0.0335   1.0000   0.2331
  -3.250  -0.2623   0.02323   0.01252  -0.0347   1.0000   0.1906
  -3.000  -0.2403   0.02171   0.01123  -0.0335   1.0000   0.2331
  -3.100  -0.2496   0.02231   0.01179  -0.0339   1.0000   0.2128
  -3.200  -0.2582   0.02288   0.01229  -0.0345   1.0000   0.1964
  -3.500  -0.2860   0.02475   0.01414  -0.0363   1.0000   0.1700
  -3.750  -0.3081   0.02636   0.01572  -0.0375   1.0000   0.1504
  -4.000  -0.3328   0.02835   0.01810  -0.0387   1.0000   0.1416
  -4.250  -0.3551   0.03046   0.02044  -0.0396   1.0000   0.1311
  -4.500  -0.3783   0.03289   0.02340  -0.0406   1.0000   0.1265
  -4.750  -0.4005   0.03579   0.02682  -0.0414   1.0000   0.1265
  -5.000  -0.4201   0.03868   0.03012  -0.0421   1.0000   0.1244
  -5.250  -0.4385   0.04225   0.03427  -0.0424   1.0000   0.1267
  -5.500  -0.4548   0.04640   0.03865  -0.0430   1.0000   0.1335
  -5.750  -0.4714   0.05308   0.04641  -0.0395   1.0000   0.1712
  -6.750  -0.4197   0.08148   0.07515  -0.0007   1.0000   0.4315
  -7.000  -0.4215   0.08367   0.07724  -0.0034   1.0000   0.4024
  -6.750  -0.3972   0.07962   0.07318  -0.0010   1.0000   0.4366
  -6.850  -0.4014   0.08078   0.07433  -0.0020   1.0000   0.4228
  -6.950  -0.4058   0.08205   0.07558  -0.0027   1.0000   0.4134
  -7.250  -0.4296   0.08655   0.08011  -0.0057   1.0000   0.3741
  -7.000  -0.4215   0.08367   0.07724  -0.0034   1.0000   0.4024
  -7.100  -0.4264   0.08494   0.07850  -0.0045   1.0000   0.3884
  -7.200  -0.4166   0.08486   0.07835  -0.0052   1.0000   0.3793
  -7.500  -0.4237   0.08832   0.08177  -0.0071   1.0000   0.3514
  -7.750  -0.4361   0.09213   0.08555  -0.0086   1.0000   0.3309
  -8.000  -0.4325   0.09430   0.08763  -0.0093   1.0000   0.3121
  -8.250  -0.4397   0.09746   0.09074  -0.0101   1.0000   0.2945
  -8.500  -0.4645   0.10260   0.09590  -0.0121   1.0000   0.2759
  -8.750  -0.4588   0.10488   0.09808  -0.0119   1.0000   0.2608
  -9.000  -0.4637   0.10810   0.10125  -0.0122   1.0000   0.2467
  -9.250  -0.4704   0.11163   0.10474  -0.0126   1.0000   0.2327
  -9.500  -0.4812   0.11569   0.10878  -0.0133   1.0000   0.2191
  -9.750  -0.4628   0.11640   0.10935  -0.0105   1.0000   0.2117
 -10.000  -0.4752   0.12084   0.11378  -0.0108   1.0000   0.2036
 -10.250  -0.4756   0.12338   0.11627  -0.0099   1.0000   0.1940
 -10.500  -0.4777   0.12693   0.11976  -0.0089   1.0000   0.1879
 -10.750  -0.4896   0.13098   0.12381  -0.0091   1.0000   0.1784
 -11.000  -0.4862   0.13385   0.12663  -0.0072   1.0000   0.1739
 -11.250  -0.4905   0.13684   0.12960  -0.0063   1.0000   0.1664
 -11.500  -0.5027   0.14194   0.13468  -0.0062   1.0000   0.1617
 -11.750  -0.4964   0.14344   0.13611  -0.0039   1.0000   0.1559
 -12.000  -0.5261   0.15155   0.14428  -0.0060   1.0000   0.1485
 -12.250  -0.5122   0.15145   0.14408  -0.0024   1.0000   0.1468
 -12.500  -0.5115   0.15358   0.14617  -0.0006   1.0000   0.1408
 -12.750  -0.5392   0.16192   0.15456  -0.0023   1.0000   0.1344
 -13.000  -0.5269   0.16154   0.15408   0.0012   1.0000   0.1325
 -13.250  -0.5278   0.16363   0.15614   0.0031   1.0000   0.1271
 -13.500  -0.5553   0.17271   0.16527   0.0014   1.0000   0.1203
 -13.750  -0.5476   0.17257   0.16506   0.0046   1.0000   0.1193
 -14.000  -0.5460   0.17373   0.16617   0.0071   1.0000   0.1154
 -14.250  -0.5538   0.17714   0.16957   0.0082   1.0000   0.1106
 -14.500  -0.5816   0.18758   0.18010   0.0068   1.0000   0.1065
 -14.750  -0.5751   0.18687   0.17933   0.0099   1.0000   0.1058
 -15.000  -0.5738   0.18746   0.17987   0.0127   1.0000   0.1035
 -15.250  -0.5793   0.19009   0.18248   0.0145   1.0000   0.1000
 -15.500  -0.5879   0.19353   0.18592   0.0158   1.0000   0.0968
 -15.750  -0.6185   0.20672   0.19916   0.0140   1.0000   0.0927
 -16.000  -0.6138   0.20542   0.19780   0.0171   1.0000   0.0923
 -16.250  -0.6126   0.20497   0.19731   0.0202   1.0000   0.0911
 -16.500  -0.6171   0.20666   0.19897   0.0226   1.0000   0.0888
 -16.750  -0.6243   0.20953   0.20183   0.0244   1.0000   0.0857
 -17.000  -0.6333   0.21300   0.20530   0.0259   1.0000   0.0830
 -17.250  -0.6457   0.21826   0.21058   0.0265   1.0000   0.0804
 -17.500  -0.6642   0.22848   0.22080   0.0264   1.0000   0.0789
 -17.750  -0.6640   0.22724   0.21952   0.0296   1.0000   0.0784
 -18.000  -0.6668   0.22719   0.21943   0.0326   1.0000   0.0774
 -18.250  -0.6729   0.22895   0.22117   0.0350   1.0000   0.0755
 -18.500  -0.6807   0.23166   0.22388   0.0371   1.0000   0.0732
 -18.750  -0.6891   0.23471   0.22698   0.0389   1.0000   0.0710
 -19.000  -0.6986   0.23830   0.23057   0.0404   1.0000   0.0686
 -19.250  -0.7173   0.24951   0.24185   0.0396   1.0000   0.0659
 -19.500  -0.7258   0.25399   0.24629   0.0415   1.0000   0.0654
 -19.750  -0.7279   0.25226   0.24451   0.0447   1.0000   0.0650
 -20.000  -0.7325   0.25207   0.24430   0.0478   1.0000   0.0641
