  
       XFOIL         Version 6.99
  
 Calculated polar for: NACA 2414                                       
  
 1 1 Reynolds number fixed          Mach number fixed         
  
 xtrf =   1.000 (top)        1.000 (bottom)  
 Mach =   0.000     Re =     0.050 e 6     Ncrit =   9.000
  
   alpha    CL        CD       CDp       CM     Top_Xtr  Bot_Xtr
  ------ -------- --------- --------- -------- -------- --------
   0.000   0.0005   0.02958   0.02018  -0.0289   0.9444   1.0000
   0.250   0.0418   0.03033   0.02078  -0.0327   0.9290   1.0000
   0.500   0.0807   0.03104   0.02137  -0.0359   0.9137   1.0000
   0.750   0.1183   0.03174   0.02195  -0.0387   0.8986   1.0000
   1.000   0.1559   0.03242   0.02254  -0.0414   0.8838   1.0000
   1.250   0.1960   0.03305   0.02310  -0.0443   0.8696   1.0000
   1.500   0.2392   0.03361   0.02360  -0.0474   0.8557   1.0000
   1.750   0.2664   0.03424   0.02419  -0.0480   0.8402   1.0000
   2.000   0.2940   0.03490   0.02482  -0.0486   0.8249   1.0000
   2.250   0.3225   0.03556   0.02546  -0.0493   0.8101   1.0000
   2.500   0.3544   0.03616   0.02605  -0.0503   0.7957   1.0000
   2.750   0.3957   0.03651   0.02641  -0.0524   0.7825   1.0000
   3.000   0.4353   0.03677   0.02671  -0.0540   0.7687   1.0000
   3.250   0.4566   0.03751   0.02746  -0.0533   0.7530   1.0000
   3.500   0.4803   0.03820   0.02817  -0.0528   0.7377   1.0000
   3.750   0.5071   0.03879   0.02879  -0.0526   0.7227   1.0000
   4.000   0.5406   0.03906   0.02912  -0.0529   0.7084   1.0000
   4.250   0.6002   0.03793   0.02809  -0.0552   0.6972   1.0000
   4.500   0.6210   0.03856   0.02876  -0.0539   0.6810   1.0000
   4.750   0.6438   0.03908   0.02934  -0.0527   0.6648   1.0000
   5.000   0.6683   0.03949   0.02982  -0.0515   0.6486   1.0000
   5.250   0.6954   0.03969   0.03009  -0.0504   0.6324   1.0000
   5.500   0.7248   0.03970   0.03018  -0.0494   0.6160   1.0000
   5.750   0.7562   0.03951   0.03007  -0.0483   0.5993   1.0000
   6.000   0.7893   0.03912   0.02975  -0.0472   0.5820   1.0000
   6.250   0.8231   0.03862   0.02934  -0.0461   0.5639   1.0000
   6.500   0.8583   0.03798   0.02874  -0.0450   0.5448   1.0000
   6.750   0.8963   0.03709   0.02787  -0.0441   0.5247   1.0000
   7.000   0.9378   0.03600   0.02672  -0.0435   0.5035   1.0000
   7.250   0.9508   0.03677   0.02759  -0.0408   0.4807   1.0000
   7.500   0.9782   0.03656   0.02735  -0.0391   0.4568   1.0000
   7.750   1.0099   0.03610   0.02678  -0.0378   0.4322   1.0000
   8.000   1.0254   0.03667   0.02739  -0.0352   0.4073   1.0000
   8.250   1.0546   0.03642   0.02695  -0.0338   0.3814   1.0000
   8.500   1.0670   0.03725   0.02783  -0.0311   0.3566   1.0000
   8.750   1.0928   0.03744   0.02775  -0.0296   0.3314   1.0000
   9.000   1.1025   0.03871   0.02909  -0.0268   0.3090   1.0000
   9.250   1.1207   0.03964   0.02990  -0.0249   0.2871   1.0000
   9.500   1.1437   0.04066   0.03065  -0.0237   0.2666   1.0000
   9.750   1.1563   0.04232   0.03233  -0.0216   0.2497   1.0000
  10.000   1.1714   0.04399   0.03396  -0.0199   0.2341   1.0000
  10.250   1.1778   0.04608   0.03626  -0.0173   0.2216   1.0000
  10.500   1.1808   0.04855   0.03895  -0.0146   0.2113   1.0000
  10.750   1.1964   0.05067   0.04104  -0.0133   0.2007   1.0000
  11.000   1.1938   0.05338   0.04403  -0.0103   0.1932   1.0000
  11.250   1.2035   0.05597   0.04667  -0.0087   0.1856   1.0000
  11.500   1.1817   0.05967   0.05076  -0.0047   0.1825   1.0000
  11.750   1.1590   0.06335   0.05469  -0.0010   0.1798   1.0000
  12.000   1.1843   0.06543   0.05668  -0.0008   0.1717   1.0000
  12.250   1.1485   0.07014   0.06168   0.0025   0.1715   1.0000
  12.500   1.1087   0.07609   0.06785   0.0039   0.1718   1.0000
  12.750   1.0658   0.08364   0.07557   0.0032   0.1726   1.0000
  12.750   1.0658   0.08364   0.07557   0.0032   0.1726   1.0000
  13.000   0.7687   0.14538   0.13714  -0.0356   0.2358   1.0000
  13.100   0.7748   0.14722   0.13901  -0.0356   0.2351   1.0000
  13.500   0.7292   0.16834   0.16012  -0.0500   0.3156   1.0000
  13.750   0.7082   0.16915   0.16088  -0.0519   0.3094   1.0000
  14.000   0.7407   0.17541   0.16724  -0.0515   0.3000   1.0000
  14.250   0.7221   0.17639   0.16815  -0.0537   0.2950   1.0000
  14.500   0.7347   0.18006   0.17186  -0.0542   0.2860   1.0000
  14.750   0.7442   0.18472   0.17653  -0.0553   0.2816   1.0000
  14.750   0.7442   0.18472   0.17653  -0.0553   0.2816   1.0000
  14.850   0.7366   0.18458   0.17637  -0.0564   0.2781   1.0000
  14.950   0.7385   0.18561   0.17740  -0.0568   0.2740   1.0000
  15.250   0.7698   0.19364   0.18552  -0.0566   0.2665   1.0000
  15.500   0.7532   0.19313   0.18496  -0.0595   0.2598   1.0000
  15.750   0.7738   0.19817   0.19006  -0.0594   0.2522   1.0000
  16.000   0.7717   0.20066   0.19252  -0.0616   0.2478   1.0000
  16.250   0.7771   0.20317   0.19504  -0.0631   0.2395   1.0000
  16.500   0.8087   0.21217   0.20412  -0.0622   0.2346   1.0000
  16.750   0.7899   0.20989   0.20178  -0.0662   0.2295   1.0000
  17.000   0.8026   0.21353   0.20545  -0.0669   0.2219   1.0000
  17.250   0.8206   0.22016   0.21211  -0.0672   0.2183   1.0000
  17.500   0.8120   0.21946   0.21137  -0.0708   0.2125   1.0000
  17.750   0.8248   0.22329   0.21524  -0.0715   0.2063   1.0000
  17.850   0.8371   0.22694   0.21893  -0.0709   0.2043   1.0000
  17.950   0.8472   0.23116   0.22317  -0.0708   0.2031   1.0000
  18.250   0.8351   0.22904   0.22098  -0.0757   0.1968   1.0000
  18.500   0.8471   0.23272   0.22470  -0.0766   0.1911   1.0000
  18.750   0.8737   0.24279   0.23483  -0.0757   0.1878   1.0000
  19.000   0.8602   0.23913   0.23111  -0.0806   0.1844   1.0000
  19.250   0.8675   0.24166   0.23365  -0.0825   0.1782   1.0000
  19.500   0.8881   0.24867   0.24073  -0.0819   0.1736   1.0000
  19.750   0.8892   0.25033   0.24236  -0.0850   0.1716   1.0000
  20.000   0.8903   0.25098   0.24300  -0.0883   0.1666   1.0000
   0.000   0.0005   0.02958   0.02018  -0.0289   0.9444   1.0000
  -0.250  -0.0433   0.02878   0.01958  -0.0244   0.9597   1.0000
  -0.500  -0.0905   0.02794   0.01896  -0.0189   0.9750   1.0000
  -0.750  -0.1406   0.02707   0.01838  -0.0126   0.9903   1.0000
  -1.000  -0.1756   0.02654   0.01816  -0.0081   1.0000   1.0000
  -1.250  -0.1523   0.02733   0.01910  -0.0120   1.0000   1.0000
  -1.500  -0.2874   0.02556   0.01763   0.0076   1.0000   0.8626
  -1.750  -0.2996   0.02536   0.01714   0.0029   1.0000   0.7732
  -2.000  -0.3101   0.02537   0.01682  -0.0013   1.0000   0.7020
  -2.250  -0.3244   0.02547   0.01662  -0.0042   1.0000   0.6393
  -2.500  -0.3411   0.02563   0.01650  -0.0064   1.0000   0.5852
  -2.750  -0.3590   0.02585   0.01647  -0.0081   1.0000   0.5377
  -3.000  -0.3776   0.02616   0.01658  -0.0096   1.0000   0.4948
  -3.250  -0.3969   0.02655   0.01680  -0.0108   1.0000   0.4561
  -3.500  -0.4169   0.02703   0.01713  -0.0120   1.0000   0.4219
  -3.750  -0.4370   0.02759   0.01750  -0.0131   1.0000   0.3917
  -4.000  -0.4577   0.02828   0.01819  -0.0139   1.0000   0.3624
  -4.250  -0.4781   0.02899   0.01875  -0.0150   1.0000   0.3383
  -4.500  -0.4988   0.02987   0.01965  -0.0158   1.0000   0.3160
  -4.750  -0.5189   0.03083   0.02067  -0.0168   1.0000   0.2957
  -5.000  -0.5384   0.03189   0.02178  -0.0178   1.0000   0.2783
  -5.250  -0.5575   0.03303   0.02294  -0.0190   1.0000   0.2632
  -5.500  -0.5763   0.03415   0.02403  -0.0202   1.0000   0.2494
  -5.750  -0.5931   0.03580   0.02602  -0.0214   1.0000   0.2368
  -6.000  -0.6089   0.03755   0.02795  -0.0227   1.0000   0.2265
  -6.250  -0.6255   0.03899   0.02944  -0.0242   1.0000   0.2171
  -6.500  -0.6360   0.04156   0.03241  -0.0258   1.0000   0.2094
  -6.750  -0.6473   0.04372   0.03478  -0.0275   1.0000   0.2025
  -7.000  -0.6597   0.04586   0.03694  -0.0292   1.0000   0.1966
  -7.250  -0.6570   0.04972   0.04135  -0.0312   1.0000   0.1930
  -7.500  -0.6516   0.05373   0.04571  -0.0331   1.0000   0.1909
  -7.750  -0.6401   0.05815   0.05040  -0.0350   1.0000   0.1902
  -8.000  -0.6198   0.06321   0.05566  -0.0367   1.0000   0.1912
  -8.250  -0.5960   0.06850   0.06104  -0.0379   1.0000   0.1935
  -8.500  -0.5763   0.07351   0.06606  -0.0387   1.0000   0.1957
  -8.750  -0.5606   0.07862   0.07116  -0.0389   1.0000   0.1992
  -8.750  -0.5672   0.07805   0.07057  -0.0394   1.0000   0.1973
  -8.850  -0.5689   0.07970   0.07221  -0.0397   1.0000   0.1979
  -9.500  -0.3816   0.10939   0.10145  -0.0141   1.0000   0.3451
  -9.750  -0.4070   0.11430   0.10639  -0.0147   1.0000   0.3357
 -10.000  -0.3940   0.11567   0.10769  -0.0145   1.0000   0.3240
 -10.250  -0.4122   0.12051   0.11253  -0.0146   1.0000   0.3176
 -10.500  -0.4022   0.12197   0.11394  -0.0143   1.0000   0.3062
 -10.750  -0.4144   0.12624   0.11820  -0.0143   1.0000   0.2990
 -11.000  -0.4125   0.12832   0.12025  -0.0140   1.0000   0.2880
 -11.250  -0.4334   0.13378   0.12572  -0.0141   1.0000   0.2826
 -11.500  -0.4169   0.13446   0.12633  -0.0130   1.0000   0.2734
 -11.750  -0.4524   0.14137   0.13331  -0.0139   1.0000   0.2657
 -12.000  -0.4261   0.14082   0.13266  -0.0120   1.0000   0.2585
 -12.250  -0.4491   0.14569   0.13756  -0.0125   1.0000   0.2503
 -12.500  -0.4461   0.14862   0.14044  -0.0112   1.0000   0.2466
 -12.750  -0.4425   0.15027   0.14206  -0.0102   1.0000   0.2383
 -13.000  -0.4828   0.15885   0.15072  -0.0113   1.0000   0.2315
 -13.250  -0.4548   0.15700   0.14875  -0.0087   1.0000   0.2271
 -13.500  -0.4626   0.15993   0.15169  -0.0081   1.0000   0.2192
 -13.750  -0.4983   0.16886   0.16067  -0.0088   1.0000   0.2146
 -14.000  -0.4734   0.16659   0.15831  -0.0060   1.0000   0.2110
 -14.250  -0.4781   0.16908   0.16080  -0.0050   1.0000   0.2041
 -14.500  -0.5210   0.17983   0.17163  -0.0063   1.0000   0.1982
 -14.750  -0.4958   0.17660   0.16829  -0.0032   1.0000   0.1958
 -15.000  -0.4970   0.17828   0.16996  -0.0015   1.0000   0.1892
 -15.250  -0.5126   0.18274   0.17445  -0.0013   1.0000   0.1841
 -15.500  -0.5336   0.19027   0.18198  -0.0011   1.0000   0.1815
 -15.750  -0.5199   0.18821   0.17987   0.0020   1.0000   0.1782
 -16.000  -0.5256   0.19061   0.18226   0.0035   1.0000   0.1725
 -16.250  -0.5431   0.19574   0.18742   0.0036   1.0000   0.1677
 -16.500  -0.5554   0.20126   0.19293   0.0045   1.0000   0.1654
 -16.750  -0.5486   0.20010   0.19172   0.0077   1.0000   0.1616
 -17.000  -0.5559   0.20275   0.19437   0.0092   1.0000   0.1569
 -17.250  -0.5689   0.20688   0.19852   0.0099   1.0000   0.1532
 -17.500  -0.5958   0.21749   0.20917   0.0093   1.0000   0.1506
 -17.750  -0.5842   0.21372   0.20533   0.0131   1.0000   0.1489
 -18.000  -0.5871   0.21484   0.20643   0.0156   1.0000   0.1445
 -18.250  -0.5969   0.21796   0.20958   0.0169   1.0000   0.1402
 -18.500  -0.6151   0.22449   0.21614   0.0168   1.0000   0.1369
 -18.750  -0.6251   0.22945   0.22108   0.0183   1.0000   0.1355
 -19.000  -0.6219   0.22766   0.21925   0.0219   1.0000   0.1334
 -19.250  -0.6280   0.22962   0.22121   0.0242   1.0000   0.1298
 -19.500  -0.6374   0.23264   0.22424   0.0257   1.0000   0.1265
 -19.750  -0.6510   0.23749   0.22912   0.0264   1.0000   0.1235
 -20.000  -0.6682   0.24607   0.23771   0.0267   1.0000   0.1218
