  
       XFOIL         Version 6.99
  
 Calculated polar for: AG10                                            
  
 1 1 Reynolds number fixed          Mach number fixed         
  
 xtrf =   1.000 (top)        1.000 (bottom)  
 Mach =   0.000     Re =     0.050 e 6     Ncrit =   9.000
  
   alpha    CL        CD       CDp       CM     Top_Xtr  Bot_Xtr
  ------ -------- --------- --------- -------- -------- --------
   0.000   0.1296   0.01386   0.00365  -0.0250   1.0000   1.0000
   0.250   0.1551   0.01392   0.00361  -0.0246   1.0000   1.0000
   0.500   0.1803   0.01399   0.00363  -0.0241   1.0000   1.0000
   0.750   0.2052   0.01409   0.00371  -0.0236   1.0000   1.0000
   1.000   0.2300   0.01420   0.00384  -0.0232   1.0000   1.0000
   1.250   0.2544   0.01435   0.00404  -0.0228   1.0000   1.0000
   1.500   0.2786   0.01453   0.00430  -0.0224   1.0000   1.0000
   1.750   0.3025   0.01476   0.00467  -0.0222   1.0000   1.0000
   2.000   0.3257   0.01506   0.00513  -0.0221   1.0000   1.0000
   2.250   0.3478   0.01552   0.00578  -0.0223   1.0000   1.0000
   2.500   0.3672   0.01641   0.00688  -0.0235   1.0000   1.0000
   2.750   0.4975   0.01629   0.00734  -0.0410   0.8548   1.0000
   3.000   0.5218   0.01675   0.00750  -0.0367   0.7467   1.0000
   3.250   0.5401   0.01755   0.00787  -0.0325   0.6635   1.0000
   3.500   0.5612   0.01848   0.00850  -0.0297   0.5925   1.0000
   3.750   0.5840   0.01948   0.00922  -0.0277   0.5317   1.0000
   4.000   0.6075   0.02055   0.01010  -0.0260   0.4768   1.0000
   4.250   0.6317   0.02171   0.01105  -0.0246   0.4279   1.0000
   4.500   0.6561   0.02293   0.01216  -0.0234   0.3825   1.0000
   4.750   0.6807   0.02422   0.01337  -0.0223   0.3390   1.0000
   5.000   0.7053   0.02559   0.01473  -0.0213   0.2974   1.0000
   5.250   0.7298   0.02712   0.01627  -0.0203   0.2586   1.0000
   5.500   0.7539   0.02869   0.01779  -0.0193   0.2233   1.0000
   5.750   0.7781   0.03062   0.01972  -0.0184   0.1923   1.0000
   6.000   0.8023   0.03279   0.02207  -0.0176   0.1664   1.0000
   6.250   0.8260   0.03577   0.02543  -0.0170   0.1481   1.0000
   6.500   0.8488   0.03906   0.02904  -0.0164   0.1352   1.0000
   6.750   0.8706   0.04213   0.03234  -0.0159   0.1237   1.0000
   7.000   0.8875   0.04767   0.03883  -0.0161   0.1205   1.0000
   7.250   0.9003   0.05384   0.04571  -0.0170   0.1197   1.0000
   7.500   0.9086   0.06040   0.05281  -0.0186   0.1196   1.0000
   7.750   0.9136   0.06713   0.05991  -0.0207   0.1206   1.0000
   8.000   0.9186   0.07349   0.06646  -0.0224   0.1222   1.0000
   8.250   0.8957   0.08804   0.08139  -0.0348   0.1488   1.0000
   8.500   0.8384   0.11004   0.10327  -0.0677   0.2913   1.0000
   8.750   0.8466   0.11455   0.10779  -0.0674   0.2810   1.0000
   9.000   0.8342   0.11815   0.11130  -0.0696   0.2737   1.0000
   9.250   0.8584   0.12441   0.11763  -0.0675   0.2648   1.0000
   9.500   0.8357   0.12649   0.11959  -0.0710   0.2575   1.0000
   9.750   0.8458   0.13148   0.12459  -0.0705   0.2487   1.0000
  10.000   0.8662   0.13730   0.13045  -0.0685   0.2360   1.0000
  10.250   0.8419   0.13889   0.13192  -0.0727   0.2312   1.0000
  10.500   0.8637   0.14490   0.13801  -0.0709   0.2222   1.0000
  10.750   0.8472   0.14725   0.14025  -0.0743   0.2179   1.0000
  11.000   0.8542   0.15144   0.14445  -0.0746   0.2100   1.0000
  11.000   0.8542   0.15144   0.14445  -0.0746   0.2100   1.0000
  11.100   0.8744   0.15608   0.14917  -0.0724   0.2073   1.0000
  11.200   0.8645   0.15633   0.14938  -0.0744   0.2066   1.0000
  11.500   0.8541   0.15903   0.15201  -0.0775   0.1987   1.0000
  11.750   0.8710   0.16527   0.15828  -0.0765   0.1924   1.0000
  12.000   0.8603   0.16693   0.15988  -0.0797   0.1868   1.0000
  12.250   0.8850   0.17445   0.16746  -0.0775   0.1787   1.0000
  12.500   0.8702   0.17507   0.16800  -0.0817   0.1754   1.0000
  12.750   0.8754   0.17870   0.17164  -0.0827   0.1687   1.0000
  13.000   0.8963   0.18650   0.17947  -0.0815   0.1646   1.0000
  13.250   0.8841   0.18668   0.17959  -0.0857   0.1615   1.0000
  13.500   0.8883   0.18997   0.18287  -0.0872   0.1559   1.0000
  13.750   0.9172   0.20017   0.19318  -0.0847   0.1509   1.0000
  14.000   0.9047   0.19929   0.19220  -0.0892   0.1495   1.0000
  14.250   0.9042   0.20115   0.19403  -0.0920   0.1448   1.0000
  14.500   0.9145   0.20556   0.19849  -0.0926   0.1396   1.0000
  14.750   0.9283   0.21253   0.20547  -0.0926   0.1365   1.0000
  15.000   0.9241   0.21254   0.20543  -0.0966   0.1335   1.0000
  15.250   0.9305   0.21574   0.20864  -0.0984   0.1282   1.0000
  15.500   0.9571   0.22767   0.22065  -0.0957   0.1233   1.0000
  15.750   0.9502   0.22590   0.21881  -0.1002   0.1224   1.0000
  16.000   0.9510   0.22678   0.21967  -0.1038   0.1194   1.0000
  16.250   0.9580   0.23002   0.22292  -0.1057   0.1154   1.0000
  16.500   0.9688   0.23476   0.22769  -0.1064   0.1119   1.0000
  16.750   0.9864   0.24481   0.23781  -0.1055   0.1097   1.0000
  17.000   0.9841   0.24323   0.23618  -0.1100   0.1087   1.0000
  17.250   0.9879   0.24453   0.23746  -0.1135   0.1059   1.0000
  17.500   0.9954   0.24769   0.24063  -0.1156   0.1026   1.0000
  17.750   1.0048   0.25178   0.24475  -0.1169   0.0995   1.0000
  18.000   1.0264   0.26581   0.25886  -0.1144   0.0966   1.0000
  18.250   1.0249   0.26308   0.25608  -0.1191   0.0960   1.0000
  18.500   1.0276   0.26260   0.25558  -0.1233   0.0943   1.0000
  18.750   1.0345   0.26503   0.25801  -0.1261   0.0911   1.0000
  19.000   1.0429   0.26848   0.26148  -0.1279   0.0878   1.0000
  19.250   1.0538   0.27403   0.26711  -0.1284   0.0850   1.0000
  19.500   1.0677   0.28455   0.27765  -0.1281   0.0835   1.0000
  19.750   1.0699   0.28247   0.27554  -0.1326   0.0829   1.0000
  20.000   1.0751   0.28283   0.27590  -0.1364   0.0814   1.0000
   0.000   0.1296   0.01386   0.00365  -0.0250   1.0000   1.0000
  -0.250   0.1040   0.01382   0.00374  -0.0255   1.0000   1.0000
  -0.500   0.0781   0.01379   0.00392  -0.0260   1.0000   1.0000
  -0.750   0.0520   0.01378   0.00417  -0.0264   1.0000   1.0000
  -1.000   0.0254   0.01378   0.00456  -0.0269   1.0000   1.0000
  -1.250  -0.0023   0.01639   0.00591  -0.0292   1.0000   0.3954
  -1.500  -0.0282   0.01847   0.00721  -0.0301   1.0000   0.2774
  -1.750  -0.0566   0.01991   0.00857  -0.0307   1.0000   0.2252
  -2.000  -0.0846   0.02140   0.01011  -0.0315   1.0000   0.1948
  -2.250  -0.1127   0.02310   0.01190  -0.0321   1.0000   0.1760
  -2.500  -0.1412   0.02494   0.01390  -0.0324   1.0000   0.1601
  -2.750  -0.1726   0.02722   0.01676  -0.0325   1.0000   0.1543
  -3.000  -0.2024   0.02955   0.01943  -0.0323   1.0000   0.1471
  -3.250  -0.2366   0.03295   0.02353  -0.0313   1.0000   0.1539
  -3.500  -0.2672   0.03645   0.02736  -0.0305   1.0000   0.1577
  -4.000  -0.4636   0.05439   0.04835   0.0328   1.0000   0.5296
  -3.750  -0.4557   0.05131   0.04536   0.0417   1.0000   0.5909
  -3.850  -0.4583   0.05251   0.04653   0.0384   1.0000   0.5651
  -4.250  -0.4667   0.05720   0.05105   0.0245   1.0000   0.4625
  -4.500  -0.4720   0.06015   0.05391   0.0175   1.0000   0.4039
  -4.450  -0.4710   0.05951   0.05329   0.0188   1.0000   0.4149
  -4.750  -0.4805   0.06322   0.05689   0.0133   1.0000   0.3563
  -4.500  -0.4720   0.06015   0.05391   0.0175   1.0000   0.4039
  -4.600  -0.4754   0.06134   0.05506   0.0153   1.0000   0.3842
  -4.700  -0.4789   0.06268   0.05635   0.0131   1.0000   0.3677
  -5.000  -0.4918   0.06670   0.06030   0.0101   1.0000   0.3234
  -5.250  -0.5045   0.07017   0.06375   0.0102   1.0000   0.2948
  -5.500  -0.5169   0.07382   0.06738   0.0119   1.0000   0.2714
  -5.750  -0.5297   0.07746   0.07099   0.0125   1.0000   0.2522
  -6.000  -0.5418   0.08125   0.07476   0.0134   1.0000   0.2365
  -6.250  -0.5528   0.08500   0.07851   0.0153   1.0000   0.2221
  -6.500  -0.5620   0.08870   0.08218   0.0181   1.0000   0.2093
  -6.750  -0.5707   0.09259   0.08603   0.0199   1.0000   0.1988
  -7.000  -0.5849   0.09776   0.09116   0.0157   1.0000   0.1883
  -7.250  -0.5858   0.09977   0.09313   0.0237   1.0000   0.1790
  -7.500  -0.5975   0.10471   0.09804   0.0226   1.0000   0.1727
  -7.750  -0.5937   0.10665   0.09989   0.0272   1.0000   0.1660
  -8.000  -0.6174   0.11381   0.10708   0.0227   1.0000   0.1589
  -8.250  -0.6051   0.11427   0.10742   0.0290   1.0000   0.1563
  -8.500  -0.6065   0.11704   0.11013   0.0309   1.0000   0.1502
  -8.750  -0.6319   0.12506   0.11822   0.0271   1.0000   0.1441
  -9.000  -0.6206   0.12539   0.11844   0.0321   1.0000   0.1425
  -9.250  -0.6187   0.12750   0.12049   0.0348   1.0000   0.1379
  -9.500  -0.6273   0.13150   0.12448   0.0350   1.0000   0.1326
  -9.750  -0.6451   0.13876   0.13176   0.0334   1.0000   0.1292
 -10.000  -0.6369   0.13927   0.13217   0.0373   1.0000   0.1275
 -10.250  -0.6368   0.14153   0.13440   0.0396   1.0000   0.1237
 -10.500  -0.6430   0.14512   0.13797   0.0405   1.0000   0.1194
 -10.750  -0.6687   0.15480   0.14770   0.0375   1.0000   0.1147
 -11.000  -0.6612   0.15498   0.14780   0.0412   1.0000   0.1140
 -11.250  -0.6580   0.15603   0.14880   0.0442   1.0000   0.1116
 -11.500  -0.6616   0.15888   0.15163   0.0459   1.0000   0.1076
 -11.750  -0.6703   0.16299   0.15576   0.0464   1.0000   0.1034
 -12.000  -0.6921   0.17265   0.16545   0.0444   1.0000   0.1001
 -12.250  -0.6872   0.17274   0.16548   0.0478   1.0000   0.0995
 -12.500  -0.6863   0.17371   0.16641   0.0506   1.0000   0.0978
 -12.750  -0.6903   0.17629   0.16898   0.0526   1.0000   0.0950
 -13.000  -0.6966   0.17960   0.17228   0.0540   1.0000   0.0922
 -13.250  -0.7049   0.18352   0.17620   0.0549   1.0000   0.0895
 -13.500  -0.7349   0.19784   0.19061   0.0518   1.0000   0.0861
 -13.750  -0.7315   0.19745   0.19017   0.0550   1.0000   0.0858
 -14.000  -0.7301   0.19723   0.18991   0.0581   1.0000   0.0852
 -14.250  -0.7321   0.19798   0.19063   0.0610   1.0000   0.0839
 -14.500  -0.7375   0.20029   0.19292   0.0632   1.0000   0.0818
 -14.750  -0.7445   0.20335   0.19599   0.0649   1.0000   0.0795
 -15.000  -0.7523   0.20676   0.19940   0.0664   1.0000   0.0773
 -15.250  -0.7612   0.21071   0.20335   0.0676   1.0000   0.0752
 -15.500  -0.7739   0.21743   0.21011   0.0676   1.0000   0.0732
 -15.750  -0.7899   0.22761   0.22028   0.0676   1.0000   0.0720
 -16.000  -0.7903   0.22642   0.21906   0.0708   1.0000   0.0717
 -16.250  -0.7934   0.22603   0.21864   0.0741   1.0000   0.0710
 -16.500  -0.7993   0.22733   0.21993   0.0768   1.0000   0.0694
 -16.750  -0.8070   0.22997   0.22260   0.0790   1.0000   0.0672
 -17.000  -0.8152   0.23310   0.22573   0.0809   1.0000   0.0651
 -17.250  -0.8237   0.23652   0.22916   0.0826   1.0000   0.0632
 -17.500  -0.8328   0.24051   0.23317   0.0839   1.0000   0.0614
 -17.750  -0.8437   0.24676   0.23944   0.0845   1.0000   0.0600
 -18.000  -0.8606   0.26036   0.25306   0.0839   1.0000   0.0589
 -18.250  -0.8636   0.25883   0.25151   0.0872   1.0000   0.0587
 -18.500  -0.8682   0.25793   0.25059   0.0905   1.0000   0.0584
 -18.750  -0.8746   0.25821   0.25086   0.0937   1.0000   0.0577
 -19.000  -0.8825   0.25991   0.25256   0.0964   1.0000   0.0566
 -19.250  -0.8908   0.26250   0.25516   0.0988   1.0000   0.0553
 -19.500  -0.8993   0.26546   0.25815   0.1010   1.0000   0.0538
 -19.750  -0.9079   0.26856   0.26127   0.1031   1.0000   0.0525
 -20.000  -0.9165   0.27179   0.26450   0.1051   1.0000   0.0512
