  
       XFOIL         Version 6.99
  
 Calculated polar for: NASA  NLF1015                                   
  
 1 1 Reynolds number fixed          Mach number fixed         
  
 xtrf =   1.000 (top)        1.000 (bottom)  
 Mach =   0.000     Re =     0.050 e 6     Ncrit =   9.000
  
   alpha    CL        CD       CDp       CM     Top_Xtr  Bot_Xtr
  ------ -------- --------- --------- -------- -------- --------
   0.000  -0.2175   0.03845   0.03075  -0.0195   1.0000   1.0000
   0.250  -0.1983   0.03862   0.03061  -0.0206   1.0000   1.0000
   0.500  -0.1755   0.03906   0.03078  -0.0222   1.0000   1.0000
   0.750  -0.1506   0.03970   0.03117  -0.0242   1.0000   1.0000
   1.000  -0.1245   0.04049   0.03170  -0.0264   1.0000   1.0000
   1.250  -0.0979   0.04140   0.03239  -0.0287   1.0000   1.0000
   1.500  -0.0711   0.04241   0.03320  -0.0310   1.0000   1.0000
   1.750  -0.0443   0.04349   0.03410  -0.0332   1.0000   1.0000
   2.000  -0.0179   0.04465   0.03508  -0.0355   1.0000   1.0000
   2.250   0.0082   0.04586   0.03615  -0.0377   1.0000   1.0000
   2.500   0.0337   0.04714   0.03729  -0.0398   1.0000   1.0000
   2.750   0.0588   0.04847   0.03850  -0.0419   1.0000   1.0000
   3.000   0.0833   0.04986   0.03978  -0.0439   1.0000   1.0000
   3.250   0.1072   0.05130   0.04113  -0.0457   1.0000   1.0000
   3.500   0.1399   0.05349   0.04322  -0.0493   0.9960   1.0000
   3.750   0.1713   0.05561   0.04526  -0.0527   0.9899   1.0000
   4.000   0.2089   0.05858   0.04813  -0.0572   0.9843   1.0000
   4.250   0.2384   0.06054   0.05006  -0.0603   0.9752   1.0000
   4.250   0.2384   0.06054   0.05006  -0.0603   0.9752   1.0000
   4.350   0.2520   0.06174   0.05123  -0.0618   0.9731   1.0000
   4.450   0.2574   0.06180   0.05131  -0.0619   0.9675   1.0000
   4.750   0.2915   0.06436   0.05385  -0.0653   0.9560   1.0000
   5.000   0.3219   0.06685   0.05633  -0.0685   0.9469   1.0000
   5.250   0.3577   0.06983   0.05930  -0.0725   0.9360   1.0000
   5.500   0.3803   0.07146   0.06095  -0.0743   0.9233   1.0000
   5.750   0.4025   0.07324   0.06276  -0.0759   0.9104   1.0000
   6.000   0.4247   0.07518   0.06476  -0.0776   0.8974   1.0000
   6.250   0.4474   0.07727   0.06690  -0.0794   0.8842   1.0000
   6.500   0.4706   0.07945   0.06914  -0.0813   0.8706   1.0000
   6.750   0.4936   0.08169   0.07144  -0.0830   0.8565   1.0000
   7.000   0.5168   0.08393   0.07377  -0.0848   0.8415   1.0000
   7.250   0.5399   0.08619   0.07611  -0.0865   0.8259   1.0000
   7.500   0.5654   0.08852   0.07854  -0.0884   0.8088   1.0000
   7.750   0.6043   0.09152   0.08165  -0.0917   0.7897   1.0000
   8.000   0.6122   0.09276   0.08300  -0.0912   0.7695   1.0000
   8.250   0.7161   0.08897   0.07933  -0.0943   0.6843   1.0000
   8.500   0.7338   0.09014   0.08065  -0.0943   0.6639   1.0000
   8.750   0.7696   0.09082   0.08149  -0.0954   0.6446   1.0000
   9.000   0.8089   0.09127   0.08212  -0.0966   0.6266   1.0000
   9.250   0.8181   0.09283   0.08384  -0.0959   0.6073   1.0000
   9.500   0.8457   0.09356   0.08475  -0.0962   0.5889   1.0000
   9.750   0.8835   0.09343   0.08484  -0.0967   0.5712   1.0000
  10.000   0.9277   0.09233   0.08401  -0.0969   0.5541   1.0000
  10.250   0.9283   0.09469   0.08652  -0.0958   0.5335   1.0000
  10.500   0.9602   0.09416   0.08623  -0.0952   0.5145   1.0000
  10.750   1.0125   0.09087   0.08331  -0.0942   0.4963   1.0000
  11.250   1.0789   0.08699   0.08002  -0.0907   0.4547   1.0000
  11.500   1.3210   0.05267   0.04656  -0.0850   0.4010   1.0000
  11.350   1.2217   0.06574   0.05949  -0.0872   0.4472   1.0000
  11.450   1.3078   0.05413   0.04807  -0.0857   0.4152   1.0000
  11.750   1.3381   0.05190   0.04535  -0.0813   0.3436   1.0000
  12.000   1.3309   0.05403   0.04711  -0.0775   0.2986   1.0000
  12.250   1.3165   0.05711   0.04995  -0.0741   0.2606   1.0000
  12.000   1.3309   0.05403   0.04711  -0.0775   0.2986   1.0000
  12.100   1.3259   0.05516   0.04813  -0.0761   0.2828   1.0000
  12.200   1.3201   0.05639   0.04924  -0.0748   0.2675   1.0000
  12.500   1.3031   0.06034   0.05279  -0.0712   0.2240   1.0000
  12.750   1.2887   0.06413   0.05635  -0.0687   0.1908   1.0000
  13.000   1.2799   0.06784   0.05973  -0.0666   0.1579   1.0000
  13.250   1.2856   0.07101   0.06245  -0.0648   0.1258   1.0000
  13.500   1.2996   0.07394   0.06541  -0.0635   0.1057   1.0000
  13.750   1.3386   0.07628   0.06781  -0.0630   0.0916   1.0000
  14.000   1.3626   0.07969   0.07141  -0.0626   0.0845   1.0000
  14.250   1.3654   0.08363   0.07573  -0.0616   0.0810   1.0000
  14.500   1.3773   0.08733   0.07961  -0.0611   0.0775   1.0000
  14.750   1.3992   0.09238   0.08476  -0.0613   0.0752   1.0000
  15.000   1.3850   0.09729   0.09006  -0.0603   0.0751   1.0000
  15.250   1.3686   0.10249   0.09559  -0.0598   0.0751   1.0000
  15.500   1.3512   0.10796   0.10137  -0.0599   0.0752   1.0000
  15.750   1.3157   0.11374   0.10759  -0.0608   0.0761   1.0000
  16.000   1.2433   0.12485   0.11926  -0.0660   0.0795   1.0000
  16.250   1.1963   0.13663   0.13130  -0.0727   0.0826   1.0000
  16.500   1.1657   0.14760   0.14238  -0.0792   0.0850   1.0000
  16.750   1.1465   0.15752   0.15230  -0.0850   0.0866   1.0000
  17.000   1.1351   0.16650   0.16128  -0.0900   0.0874   1.0000
  18.000   0.7830   0.21386   0.20925  -0.1075   0.2113   1.0000
  18.250   0.7688   0.21512   0.21051  -0.1104   0.2085   1.0000
  18.500   0.7775   0.21901   0.21444  -0.1113   0.1989   1.0000
  18.750   0.7799   0.22323   0.21867  -0.1129   0.1955   1.0000
  18.500   0.7775   0.21901   0.21444  -0.1113   0.1989   1.0000
  18.600   0.7897   0.22281   0.21825  -0.1110   0.1968   1.0000
  18.700   0.7820   0.22292   0.21836  -0.1124   0.1960   1.0000
  19.000   0.7770   0.22594   0.22140  -0.1151   0.1890   1.0000
  18.750   0.7799   0.22323   0.21867  -0.1129   0.1955   1.0000
  18.850   0.7755   0.22393   0.21936  -0.1141   0.1928   1.0000
  18.950   0.7760   0.22521   0.22066  -0.1148   0.1902   1.0000
  19.250   0.7948   0.23187   0.22738  -0.1151   0.1833   1.0000
  19.500   0.7891   0.23451   0.23001  -0.1176   0.1810   1.0000
  19.750   0.7879   0.23734   0.23286  -0.1196   0.1741   1.0000
  20.000   0.8083   0.24437   0.23995  -0.1194   0.1683   1.0000
   0.000  -0.2759   0.02749   0.02112  -0.0031   1.0000   0.9551
  -0.250  -0.2829   0.02751   0.02128  -0.0081   1.0000   0.8963
  -0.500  -0.2736   0.02791   0.02174  -0.0164   1.0000   0.8517
  -0.750  -0.2630   0.02810   0.02199  -0.0254   1.0000   0.8070
  -1.000  -0.2510   0.02798   0.02190  -0.0353   1.0000   0.7595
  -1.250  -0.2377   0.02727   0.02118  -0.0459   1.0000   0.6923
  -1.500  -0.2199   0.02614   0.01916  -0.0590   1.0000   0.4352
  -1.750  -0.2683   0.03101   0.02152  -0.0550   1.0000   0.1618
  -2.000  -0.2882   0.03219   0.02262  -0.0565   1.0000   0.1449
  -2.250  -0.3094   0.03334   0.02379  -0.0575   1.0000   0.1325
  -2.500  -0.3306   0.03472   0.02513  -0.0582   1.0000   0.1242
  -2.750  -0.3560   0.03624   0.02706  -0.0583   1.0000   0.1205
  -3.000  -0.3824   0.03816   0.02937  -0.0579   1.0000   0.1189
  -3.250  -0.4101   0.04056   0.03222  -0.0568   1.0000   0.1188
  -3.500  -0.4383   0.04340   0.03555  -0.0551   1.0000   0.1185
  -3.750  -0.4668   0.04689   0.03959  -0.0527   1.0000   0.1190
  -4.000  -0.4929   0.05105   0.04423  -0.0500   1.0000   0.1221
  -4.250  -0.5110   0.05499   0.04820  -0.0497   1.0000   0.1255
  -4.500  -0.5423   0.06556   0.05895  -0.0503   1.0000   0.1381
  -5.000  -0.5068   0.10512   0.10008   0.0090   1.0000   0.3945
  -5.250  -0.5094   0.10745   0.10239   0.0063   1.0000   0.3762
  -5.750  -0.4935   0.11157   0.10639   0.0006   1.0000   0.3465
  -6.000  -0.4848   0.11375   0.10851  -0.0018   1.0000   0.3338
  -6.250  -0.4901   0.11672   0.11145  -0.0037   1.0000   0.3234
  -6.500  -0.5137   0.12078   0.11555  -0.0054   1.0000   0.3100
  -6.750  -0.4696   0.12045   0.11507  -0.0079   1.0000   0.3000
  -7.000  -0.4683   0.12319   0.11776  -0.0096   1.0000   0.2913
  -6.750  -0.4696   0.12045   0.11507  -0.0079   1.0000   0.3000
  -6.850  -0.4945   0.12307   0.11776  -0.0086   1.0000   0.2952
  -6.950  -0.4817   0.12358   0.11820  -0.0093   1.0000   0.2933
  -7.250  -0.4803   0.12631   0.12089  -0.0116   1.0000   0.2800
  -7.000  -0.4683   0.12319   0.11776  -0.0096   1.0000   0.2913
  -7.100  -0.4601   0.12358   0.11811  -0.0104   1.0000   0.2862
  -7.200  -0.4661   0.12478   0.11933  -0.0112   1.0000   0.2822
  -7.500  -0.4517   0.12723   0.12169  -0.0129   1.0000   0.2718
  -7.750  -0.4761   0.13180   0.12631  -0.0149   1.0000   0.2630
  -8.000  -0.4422   0.13172   0.12609  -0.0158   1.0000   0.2550
  -8.250  -0.4637   0.13630   0.13070  -0.0178   1.0000   0.2474
  -8.500  -0.4327   0.13625   0.13054  -0.0184   1.0000   0.2401
  -8.750  -0.4592   0.14139   0.13571  -0.0207   1.0000   0.2321
  -9.000  -0.4255   0.14090   0.13509  -0.0208   1.0000   0.2274
  -9.250  -0.4331   0.14376   0.13794  -0.0226   1.0000   0.2189
  -9.500  -0.4248   0.14606   0.14017  -0.0235   1.0000   0.2147
  -9.750  -0.4129   0.14718   0.14123  -0.0243   1.0000   0.2076
 -10.000  -0.4328   0.15214   0.14621  -0.0265   1.0000   0.2010
 -10.250  -0.4062   0.15170   0.14565  -0.0265   1.0000   0.1970
 -10.500  -0.4067   0.15382   0.14774  -0.0279   1.0000   0.1894
 -10.750  -0.4149   0.15787   0.15176  -0.0296   1.0000   0.1852
 -11.000  -0.3940   0.15762   0.15141  -0.0297   1.0000   0.1811
 -11.250  -0.3934   0.15965   0.15341  -0.0311   1.0000   0.1746
 -11.500  -0.4136   0.16560   0.15940  -0.0334   1.0000   0.1705
 -11.750  -0.3894   0.16446   0.15812  -0.0334   1.0000   0.1687
 -12.000  -0.3778   0.16506   0.15865  -0.0341   1.0000   0.1641
 -12.250  -0.3781   0.16722   0.16076  -0.0357   1.0000   0.1593
 -12.500  -0.4007   0.17416   0.16774  -0.0381   1.0000   0.1554
 -12.750  -0.3782   0.17267   0.16613  -0.0384   1.0000   0.1543
 -13.000  -0.3639   0.17245   0.16582  -0.0390   1.0000   0.1509
 -13.250  -0.3599   0.17390   0.16721  -0.0402   1.0000   0.1466
 -13.500  -0.3632   0.17651   0.16978  -0.0420   1.0000   0.1429
 -13.750  -0.3783   0.18294   0.17619  -0.0440   1.0000   0.1402
 -14.000  -0.3592   0.18119   0.17432  -0.0443   1.0000   0.1390
 -14.250  -0.3487   0.18118   0.17422  -0.0448   1.0000   0.1358
 -14.500  -0.3462   0.18268   0.17566  -0.0457   1.0000   0.1324
 -14.750  -0.3488   0.18513   0.17807  -0.0470   1.0000   0.1287
 -15.000  -0.3731   0.19423   0.18717  -0.0492   1.0000   0.1254
 -15.250  -0.3566   0.19201   0.18484  -0.0489   1.0000   0.1246
 -15.500  -0.3472   0.19143   0.18416  -0.0485   1.0000   0.1225
 -15.750  -0.3457   0.19278   0.18544  -0.0486   1.0000   0.1186
 -16.000  -0.3491   0.19509   0.18771  -0.0490   1.0000   0.1150
 -16.250  -0.3787   0.20656   0.19923  -0.0514   1.0000   0.1106
 -16.500  -0.3667   0.20436   0.19692  -0.0504   1.0000   0.1101
 -16.750  -0.3591   0.20324   0.19572  -0.0493   1.0000   0.1088
 -17.000  -0.3582   0.20424   0.19666  -0.0486   1.0000   0.1058
 -17.250  -0.3615   0.20638   0.19875  -0.0482   1.0000   0.1029
 -17.500  -0.3669   0.20905   0.20139  -0.0481   1.0000   0.1000
 -17.750  -0.3768   0.21338   0.20571  -0.0485   1.0000   0.0975
 -18.000  -0.3938   0.22226   0.21458  -0.0492   1.0000   0.0959
 -18.250  -0.3880   0.22046   0.21270  -0.0477   1.0000   0.0954
 -18.500  -0.3856   0.21987   0.21204  -0.0461   1.0000   0.0940
 -18.750  -0.3881   0.22128   0.21340  -0.0449   1.0000   0.0917
 -19.000  -0.3929   0.22345   0.21554  -0.0441   1.0000   0.0893
 -19.250  -0.3987   0.22601   0.21807  -0.0434   1.0000   0.0869
 -19.500  -0.4061   0.22907   0.22114  -0.0429   1.0000   0.0847
 -19.750  -0.4190   0.23536   0.22744  -0.0432   1.0000   0.0826
 -20.000  -0.4302   0.24228   0.23432  -0.0429   1.0000   0.0817
