  
       XFOIL         Version 6.99
  
 Calculated polar for: S7075 (9%)                                      
  
 1 1 Reynolds number fixed          Mach number fixed         
  
 xtrf =   1.000 (top)        1.000 (bottom)  
 Mach =   0.000     Re =     0.050 e 6     Ncrit =   9.000
  
   alpha    CL        CD       CDp       CM     Top_Xtr  Bot_Xtr
  ------ -------- --------- --------- -------- -------- --------
   0.000   0.0610   0.02132   0.01173  -0.0399   1.0000   1.0000
   0.250   0.0815   0.02185   0.01206  -0.0397   1.0000   1.0000
   0.500   0.1016   0.02243   0.01247  -0.0396   1.0000   1.0000
   0.750   0.1212   0.02306   0.01295  -0.0395   1.0000   1.0000
   1.000   0.1403   0.02376   0.01350  -0.0394   1.0000   1.0000
   1.250   0.1590   0.02451   0.01415  -0.0394   1.0000   1.0000
   1.500   0.1771   0.02533   0.01488  -0.0394   1.0000   1.0000
   1.750   0.1987   0.02630   0.01578  -0.0402   0.9979   1.0000
   2.000   0.2532   0.02797   0.01736  -0.0470   0.9787   1.0000
   2.250   0.3050   0.02942   0.01877  -0.0528   0.9592   1.0000
   2.500   0.3530   0.03067   0.02001  -0.0578   0.9390   1.0000
   2.750   0.3971   0.03170   0.02105  -0.0617   0.9180   1.0000
   3.000   0.4488   0.03266   0.02208  -0.0665   0.8984   1.0000
   3.250   0.4838   0.03334   0.02282  -0.0684   0.8758   1.0000
   3.500   0.5339   0.03386   0.02344  -0.0722   0.8557   1.0000
   3.750   0.5688   0.03430   0.02398  -0.0736   0.8326   1.0000
   4.000   0.6217   0.03425   0.02411  -0.0768   0.8123   1.0000
   4.250   0.6567   0.03432   0.02433  -0.0774   0.7882   1.0000
   4.500   0.7174   0.03329   0.02358  -0.0805   0.7683   1.0000
   4.750   0.7577   0.03267   0.02315  -0.0807   0.7436   1.0000
   5.000   0.8071   0.03131   0.02203  -0.0812   0.7201   1.0000
   5.250   0.8687   0.02896   0.01997  -0.0822   0.6962   1.0000
   5.500   0.9079   0.02781   0.01898  -0.0809   0.6641   1.0000
   5.750   0.9467   0.02675   0.01804  -0.0795   0.6272   1.0000
   6.000   0.9786   0.02626   0.01753  -0.0775   0.5854   1.0000
   6.250   1.0058   0.02618   0.01734  -0.0751   0.5397   1.0000
   6.500   1.0300   0.02642   0.01733  -0.0727   0.4912   1.0000
   6.750   1.0470   0.02713   0.01792  -0.0697   0.4408   1.0000
   7.000   1.0647   0.02800   0.01846  -0.0670   0.3899   1.0000
   7.250   1.0792   0.02925   0.01946  -0.0642   0.3400   1.0000
   7.500   1.0946   0.03077   0.02071  -0.0618   0.2941   1.0000
   7.750   1.1118   0.03255   0.02225  -0.0598   0.2546   1.0000
   8.000   1.1291   0.03446   0.02405  -0.0580   0.2225   1.0000
   8.250   1.1514   0.03674   0.02618  -0.0570   0.1986   1.0000
   8.500   1.1698   0.03897   0.02856  -0.0556   0.1798   1.0000
   8.750   1.1904   0.04162   0.03137  -0.0545   0.1665   1.0000
   8.750   1.1904   0.04162   0.03137  -0.0545   0.1666   1.0000
   8.850   1.1997   0.04271   0.03249  -0.0542   0.1623   1.0000
   8.950   1.2115   0.04400   0.03370  -0.0543   0.1584   1.0000
   9.250   1.2265   0.04741   0.03770  -0.0519   0.1488   1.0000
   9.500   1.2396   0.05061   0.04117  -0.0504   0.1423   1.0000
   9.750   1.2438   0.05436   0.04547  -0.0479   0.1390   1.0000
  10.000   1.2462   0.05834   0.04991  -0.0456   0.1369   1.0000
  10.250   1.2442   0.06258   0.05455  -0.0433   0.1356   1.0000
  10.500   1.2347   0.06708   0.05944  -0.0407   0.1352   1.0000
  10.750   1.2131   0.07196   0.06470  -0.0379   0.1359   1.0000
  11.000   1.1787   0.07704   0.07005  -0.0350   0.1378   1.0000
  11.250   1.1403   0.08282   0.07602  -0.0338   0.1399   1.0000
  11.500   1.1053   0.08967   0.08298  -0.0349   0.1419   1.0000
  11.750   1.0796   0.09718   0.09053  -0.0373   0.1437   1.0000
  12.000   0.9684   0.12310   0.11620  -0.0576   0.1618   1.0000
  12.750   0.7022   0.15486   0.14827  -0.0734   0.2984   1.0000
  12.500   0.7180   0.15328   0.14667  -0.0721   0.3024   1.0000
  12.600   0.7234   0.15567   0.14908  -0.0725   0.3012   1.0000
  12.700   0.7082   0.15504   0.14844  -0.0731   0.2999   1.0000
  13.000   0.7054   0.15787   0.15133  -0.0741   0.2901   1.0000
  12.750   0.7022   0.15486   0.14827  -0.0734   0.2984   1.0000
  12.850   0.6987   0.15551   0.14893  -0.0739   0.2947   1.0000
  12.950   0.7017   0.15689   0.15034  -0.0741   0.2915   1.0000
  13.250   0.7088   0.16162   0.15514  -0.0751   0.2851   1.0000
  13.500   0.7165   0.16488   0.15846  -0.0755   0.2740   1.0000
  13.750   0.7070   0.16656   0.16015  -0.0770   0.2672   1.0000
  14.000   0.7327   0.17299   0.16668  -0.0768   0.2584   1.0000
  14.250   0.7131   0.17276   0.16642  -0.0790   0.2534   1.0000
  14.500   0.7227   0.17653   0.17026  -0.0796   0.2460   1.0000
  14.750   0.7257   0.18019   0.17395  -0.0808   0.2422   1.0000
  15.000   0.7225   0.18196   0.17575  -0.0824   0.2348   1.0000
  15.250   0.7410   0.18809   0.18194  -0.0825   0.2290   1.0000
  15.500   0.7288   0.18811   0.18198  -0.0847   0.2219   1.0000
  15.750   0.7509   0.19500   0.18896  -0.0845   0.2149   1.0000
  16.000   0.7362   0.19452   0.18849  -0.0871   0.2097   1.0000
  16.250   0.7449   0.19829   0.19232  -0.0879   0.2035   1.0000
  16.500   0.7540   0.20333   0.19739  -0.0888   0.2002   1.0000
  16.750   0.7468   0.20420   0.19828  -0.0911   0.1944   1.0000
  17.000   0.7637   0.21003   0.20419  -0.0910   0.1876   1.0000
  17.250   0.7577   0.21161   0.20578  -0.0934   0.1845   1.0000
  17.500   0.7602   0.21425   0.20846  -0.0948   0.1768   1.0000
  17.750   0.7765   0.22128   0.21554  -0.0948   0.1724   1.0000
  18.000   0.7667   0.22126   0.21554  -0.0977   0.1689   1.0000
  18.250   0.7711   0.22456   0.21891  -0.0990   0.1630   1.0000
  18.500   0.7871   0.23179   0.22619  -0.0990   0.1585   1.0000
  18.750   0.7777   0.23170   0.22612  -0.1020   0.1546   1.0000
  19.000   0.7845   0.23554   0.23000  -0.1029   0.1476   1.0000
  19.250   0.7958   0.24207   0.23658  -0.1035   0.1445   1.0000
  19.500   0.7891   0.24267   0.23718  -0.1063   0.1412   1.0000
  19.750   0.7936   0.24616   0.24072  -0.1077   0.1352   1.0000
  20.000   0.8078   0.25358   0.24818  -0.1077   0.1309   1.0000
   0.000   0.0257   0.00707  -0.00132  -0.0351   1.0000   1.0000
  -0.250   0.0070   0.00658  -0.00158  -0.0351   1.0000   1.0000
  -0.500  -0.0124   0.00616  -0.00173  -0.0351   1.0000   1.0000
  -0.750  -0.0324   0.00580  -0.00176  -0.0350   1.0000   1.0000
  -1.000  -0.0537   0.00550  -0.00164  -0.0348   1.0000   1.0000
  -1.250  -0.0777   0.00526  -0.00125  -0.0341   1.0000   1.0000
  -1.500  -0.0747   0.00576  -0.00133  -0.0419   1.0000   0.6221
  -1.750  -0.0936   0.00826  -0.00116  -0.0450   1.0000   0.2721
  -2.000  -0.1188   0.00979   0.00002  -0.0456   1.0000   0.1961
  -2.250  -0.1416   0.01115   0.00137  -0.0466   1.0000   0.1636
  -2.500  -0.1652   0.01264   0.00294  -0.0473   1.0000   0.1451
  -2.750  -0.1904   0.01452   0.00506  -0.0477   1.0000   0.1347
  -3.000  -0.2159   0.01664   0.00748  -0.0479   1.0000   0.1288
  -3.250  -0.2419   0.01925   0.01038  -0.0477   1.0000   0.1233
  -3.500  -0.2696   0.02238   0.01406  -0.0469   1.0000   0.1228
  -3.750  -0.2943   0.02604   0.01800  -0.0463   1.0000   0.1251
  -4.000  -0.3258   0.03140   0.02429  -0.0432   1.0000   0.1383
  -4.750  -0.4217   0.07218   0.06661   0.0074   1.0000   0.4150
  -5.000  -0.4320   0.07520   0.06961   0.0032   1.0000   0.3933
  -5.250  -0.4200   0.07690   0.07120   0.0011   1.0000   0.3695
  -5.500  -0.4296   0.07983   0.07409  -0.0029   1.0000   0.3488
  -5.750  -0.4302   0.08261   0.07679  -0.0057   1.0000   0.3315
  -5.500  -0.4296   0.07983   0.07409  -0.0029   1.0000   0.3488
  -5.600  -0.4200   0.08041   0.07460  -0.0030   1.0000   0.3437
  -5.700  -0.4258   0.08151   0.07570  -0.0047   1.0000   0.3345
  -6.000  -0.4187   0.08436   0.07843  -0.0074   1.0000   0.3150
  -6.250  -0.4168   0.08679   0.08078  -0.0099   1.0000   0.3005
  -6.500  -0.4198   0.08966   0.08358  -0.0125   1.0000   0.2867
  -6.750  -0.3969   0.09015   0.08392  -0.0147   1.0000   0.2770
  -7.000  -0.3877   0.09220   0.08584  -0.0172   1.0000   0.2683
  -7.250  -0.4043   0.09643   0.09006  -0.0190   1.0000   0.2571
  -7.500  -0.3757   0.09615   0.08958  -0.0211   1.0000   0.2498
  -7.750  -0.3865   0.10001   0.09341  -0.0227   1.0000   0.2416
  -8.000  -0.3744   0.10108   0.09434  -0.0238   1.0000   0.2324
  -8.250  -0.3766   0.10423   0.09741  -0.0247   1.0000   0.2257
  -8.500  -0.3761   0.10640   0.09951  -0.0256   1.0000   0.2164
  -8.750  -0.3769   0.10944   0.10246  -0.0261   1.0000   0.2110
  -9.000  -0.3753   0.11152   0.10449  -0.0264   1.0000   0.2023
  -9.250  -0.3835   0.11553   0.10845  -0.0270   1.0000   0.1972
  -9.500  -0.3752   0.11669   0.10951  -0.0263   1.0000   0.1902
  -9.750  -0.3981   0.12282   0.11565  -0.0281   1.0000   0.1834
 -10.000  -0.3812   0.12263   0.11533  -0.0261   1.0000   0.1794
 -10.250  -0.3890   0.12589   0.11856  -0.0264   1.0000   0.1719
 -10.500  -0.3974   0.13019   0.12281  -0.0265   1.0000   0.1679
 -10.750  -0.3899   0.13112   0.12366  -0.0250   1.0000   0.1621
 -11.000  -0.4171   0.13856   0.13113  -0.0270   1.0000   0.1542
 -11.250  -0.4020   0.13797   0.13043  -0.0245   1.0000   0.1520
 -11.500  -0.4024   0.14002   0.13243  -0.0234   1.0000   0.1461
 -11.750  -0.4322   0.14863   0.14110  -0.0255   1.0000   0.1397
 -12.000  -0.4198   0.14805   0.14043  -0.0229   1.0000   0.1385
 -12.250  -0.4161   0.14920   0.14152  -0.0211   1.0000   0.1343
 -12.500  -0.4231   0.15239   0.14469  -0.0206   1.0000   0.1295
 -12.750  -0.4516   0.16171   0.15405  -0.0222   1.0000   0.1252
 -13.000  -0.4406   0.16077   0.15303  -0.0195   1.0000   0.1242
 -13.250  -0.4382   0.16163   0.15383  -0.0175   1.0000   0.1213
 -13.500  -0.4432   0.16437   0.15654  -0.0164   1.0000   0.1170
 -13.750  -0.4546   0.16862   0.16080  -0.0162   1.0000   0.1131
 -14.000  -0.4746   0.17684   0.16902  -0.0166   1.0000   0.1107
 -14.250  -0.4683   0.17601   0.16813  -0.0140   1.0000   0.1097
 -14.500  -0.4685   0.17697   0.16904  -0.0119   1.0000   0.1071
 -14.750  -0.4743   0.17959   0.17164  -0.0105   1.0000   0.1036
 -15.000  -0.4830   0.18302   0.17507  -0.0097   1.0000   0.1004
 -15.250  -0.5141   0.19602   0.18814  -0.0113   1.0000   0.0967
 -15.500  -0.5089   0.19461   0.18667  -0.0088   1.0000   0.0963
 -15.750  -0.5063   0.19367   0.18567  -0.0061   1.0000   0.0952
 -16.000  -0.5099   0.19504   0.18701  -0.0039   1.0000   0.0925
 -16.250  -0.5169   0.19772   0.18969  -0.0024   1.0000   0.0892
 -16.500  -0.5261   0.20119   0.19316  -0.0014   1.0000   0.0861
 -16.750  -0.5454   0.21012   0.20213  -0.0019   1.0000   0.0832
 -17.000  -0.5534   0.21436   0.20633  -0.0004   1.0000   0.0824
 -17.250  -0.5533   0.21329   0.20520   0.0023   1.0000   0.0818
 -17.500  -0.5568   0.21380   0.20569   0.0048   1.0000   0.0805
 -17.750  -0.5634   0.21590   0.20777   0.0068   1.0000   0.0784
 -18.000  -0.5711   0.21861   0.21050   0.0086   1.0000   0.0762
 -18.250  -0.5795   0.22157   0.21346   0.0101   1.0000   0.0742
 -18.500  -0.5887   0.22504   0.21693   0.0114   1.0000   0.0722
 -18.750  -0.6001   0.23013   0.22204   0.0122   1.0000   0.0703
 -19.000  -0.6209   0.24342   0.23534   0.0118   1.0000   0.0690
 -19.250  -0.6217   0.24152   0.23340   0.0146   1.0000   0.0687
 -19.500  -0.6247   0.24057   0.23243   0.0174   1.0000   0.0683
 -19.750  -0.6299   0.24090   0.23273   0.0201   1.0000   0.0674
 -20.000  -0.6369   0.24258   0.23440   0.0224   1.0000   0.0659
