  
       XFOIL         Version 6.99
  
 Calculated polar for: NACA M18                                        
  
 1 1 Reynolds number fixed          Mach number fixed         
  
 xtrf =   1.000 (top)        1.000 (bottom)  
 Mach =   0.000     Re =     0.050 e 6     Ncrit =   9.000
  
   alpha    CL        CD       CDp       CM     Top_Xtr  Bot_Xtr
  ------ -------- --------- --------- -------- -------- --------
   0.000   0.1504   0.03954   0.02820  -0.0548   0.8159   0.2095
   0.250   0.1918   0.03893   0.02772  -0.0568   0.8084   0.2519
   0.500   0.2025   0.03856   0.02783  -0.0546   0.8000   0.3212
   0.750   0.3738   0.03671   0.02692  -0.0786   0.7915   1.0000
   1.000   0.3818   0.03784   0.02789  -0.0762   0.7820   1.0000
   1.250   0.3936   0.03896   0.02887  -0.0743   0.7735   1.0000
   1.500   0.4074   0.04001   0.02978  -0.0728   0.7647   1.0000
   1.750   0.4128   0.04134   0.03099  -0.0702   0.7564   1.0000
   2.000   0.4267   0.04245   0.03199  -0.0687   0.7482   1.0000
   2.250   0.4287   0.04387   0.03331  -0.0656   0.7401   1.0000
   2.500   0.4379   0.04512   0.03447  -0.0636   0.7322   1.0000
   2.750   0.4466   0.04649   0.03575  -0.0616   0.7247   1.0000
   3.000   0.4477   0.04798   0.03716  -0.0587   0.7168   1.0000
   3.250   0.4681   0.04921   0.03832  -0.0582   0.7095   1.0000
   3.500   0.4596   0.05104   0.04009  -0.0546   0.7024   1.0000
   3.750   0.4939   0.05203   0.04101  -0.0557   0.6944   1.0000
   4.000   0.4767   0.05421   0.04317  -0.0516   0.6882   1.0000
   4.250   0.5105   0.05525   0.04417  -0.0526   0.6801   1.0000
   4.500   0.4987   0.05750   0.04638  -0.0494   0.6742   1.0000
   4.750   0.5051   0.05934   0.04820  -0.0481   0.6680   1.0000
   5.000   0.5263   0.06089   0.04972  -0.0480   0.6604   1.0000
   5.250   0.5192   0.06327   0.05209  -0.0460   0.6565   1.0000
   5.500   0.5266   0.06534   0.05415  -0.0452   0.6518   1.0000
   5.750   0.5485   0.06709   0.05592  -0.0453   0.6443   1.0000
   6.000   0.5465   0.06975   0.05858  -0.0443   0.6436   1.0000
   6.250   0.5497   0.07245   0.06130  -0.0439   0.6442   1.0000
   6.500   0.5637   0.07532   0.06419  -0.0446   0.6462   1.0000
   7.250   0.4938   0.08547   0.07446  -0.0415   0.7198   1.0000
   7.000   0.4886   0.08375   0.07273  -0.0426   0.7309   1.0000
   7.100   0.5092   0.08583   0.07482  -0.0446   0.7282   1.0000
   7.200   0.4920   0.08519   0.07417  -0.0417   0.7229   1.0000
   7.250   0.4938   0.08547   0.07446  -0.0415   0.7198   1.0000
   7.350   0.5045   0.08655   0.07556  -0.0421   0.7156   1.0000
   7.450   0.5201   0.08817   0.07719  -0.0434   0.7130   1.0000
   7.750   0.5238   0.09002   0.07907  -0.0418   0.6998   1.0000
   8.000   0.5342   0.09232   0.08141  -0.0415   0.6906   1.0000
   8.250   0.5614   0.09538   0.08452  -0.0430   0.6802   1.0000
   8.500   0.5571   0.09671   0.08588  -0.0411   0.6699   1.0000
   8.750   0.5903   0.10075   0.08998  -0.0435   0.6624   1.0000
   8.500   0.5571   0.09671   0.08588  -0.0411   0.6699   1.0000
   8.600   0.5684   0.09795   0.08715  -0.0418   0.6660   1.0000
   8.700   0.5865   0.09996   0.08919  -0.0432   0.6634   1.0000
   9.000   0.5871   0.10174   0.09102  -0.0416   0.6497   1.0000
   9.250   0.5923   0.10404   0.09338  -0.0411   0.6410   1.0000
   9.500   0.6231   0.10774   0.09718  -0.0429   0.6306   1.0000
   9.750   0.6169   0.10890   0.09837  -0.0411   0.6183   1.0000
  10.000   0.6258   0.11155   0.10109  -0.0409   0.6086   1.0000
  10.250   0.6598   0.11579   0.10547  -0.0428   0.5969   1.0000
  10.500   0.6563   0.11698   0.10671  -0.0414   0.5832   1.0000
  10.750   0.6568   0.11909   0.10889  -0.0407   0.5710   1.0000
  11.000   0.6680   0.12214   0.11203  -0.0409   0.5604   1.0000
  11.250   0.6979   0.12645   0.11649  -0.0423   0.5482   1.0000
  11.500   0.6933   0.12793   0.11805  -0.0413   0.5350   1.0000
  11.750   0.6929   0.13034   0.12053  -0.0409   0.5229   1.0000
  12.000   0.7017   0.13354   0.12382  -0.0412   0.5121   1.0000
  12.250   0.7313   0.13836   0.12880  -0.0425   0.5008   1.0000
  12.500   0.7220   0.13970   0.13018  -0.0417   0.4884   1.0000
  12.750   0.7224   0.14244   0.13299  -0.0418   0.4774   1.0000
  13.000   0.7396   0.14662   0.13732  -0.0426   0.4680   1.0000
  13.250   0.7610   0.15076   0.14160  -0.0431   0.4538   1.0000
  13.500   0.7524   0.15206   0.14296  -0.0428   0.4412   1.0000
  13.750   0.7533   0.15479   0.14576  -0.0431   0.4289   1.0000
  14.000   0.7607   0.15785   0.14892  -0.0434   0.4144   1.0000
  14.250   0.7912   0.16225   0.15352  -0.0432   0.3912   1.0000
  14.500   0.7893   0.16447   0.15580  -0.0433   0.3745   1.0000
  14.750   0.9146   0.13706   0.12901  -0.0241   0.2219   1.0000
  15.000   1.2043   0.07949   0.07024   0.0073   0.1157   1.0000
  15.250   1.1921   0.08452   0.07563   0.0068   0.1134   1.0000
  15.500   1.1787   0.08997   0.08140   0.0060   0.1117   1.0000
  15.750   1.1597   0.09629   0.08801   0.0045   0.1107   1.0000
  16.000   1.1310   0.10436   0.09636   0.0017   0.1111   1.0000
  16.250   1.0930   0.11472   0.10695  -0.0027   0.1127   1.0000
  16.500   1.0530   0.12681   0.11918  -0.0083   0.1146   1.0000
  17.000   0.9034   0.17987   0.17190  -0.0362   0.1404   1.0000
  17.250   0.9040   0.18612   0.17814  -0.0387   0.1412   1.0000
  17.500   0.9080   0.19184   0.18388  -0.0407   0.1419   1.0000
  18.000   0.6097   0.18673   0.17934  -0.0257   0.2397   1.0000
  18.250   0.6017   0.18759   0.18022  -0.0269   0.2336   1.0000
  18.500   0.6255   0.19438   0.18709  -0.0267   0.2261   1.0000
  18.750   0.6122   0.19426   0.18696  -0.0282   0.2244   1.0000
  19.000   0.6087   0.19578   0.18849  -0.0294   0.2185   1.0000
  18.750   0.6122   0.19427   0.18696  -0.0282   0.2244   1.0000
  18.850   0.6087   0.19454   0.18724  -0.0288   0.2224   1.0000
  18.950   0.6081   0.19529   0.18800  -0.0292   0.2198   1.0000
  19.250   0.6289   0.20189   0.19470  -0.0292   0.2118   1.0000
  19.250   0.6289   0.20189   0.19470  -0.0292   0.2118   1.0000
  19.350   0.6266   0.20256   0.19535  -0.0298   0.2112   1.0000
  19.450   0.6206   0.20220   0.19498  -0.0305   0.2103   1.0000
  19.750   0.6171   0.20390   0.19671  -0.0319   0.2031   1.0000
  20.000   0.6287   0.20817   0.20103  -0.0322   0.1984   1.0000
   0.000   0.3171   0.03412   0.02518  -0.0817   0.8187   1.0000
  -0.250   0.1238   0.03957   0.02827  -0.0546   0.8251   0.1927
  -0.500   0.0722   0.04015   0.02903  -0.0508   0.8327   0.1777
  -0.750   0.0516   0.04036   0.02932  -0.0515   0.8422   0.1734
  -1.000   0.0064   0.04144   0.03065  -0.0486   0.8497   0.1698
  -1.250  -0.0086   0.04165   0.03113  -0.0503   0.8594   0.1678
  -1.000   0.0064   0.04144   0.03065  -0.0486   0.8497   0.1698
  -1.100  -0.0063   0.04166   0.03103  -0.0484   0.8532   0.1686
  -1.200  -0.0115   0.04174   0.03120  -0.0491   0.8572   0.1679
  -1.500  -0.0564   0.04292   0.03285  -0.0471   0.8667   0.1663
  -1.750  -0.0736   0.04378   0.03392  -0.0484   0.8765   0.1687
  -2.000  -0.1219   0.04561   0.03649  -0.0452   0.8838   0.1810
  -2.250  -0.1450   0.04706   0.03841  -0.0456   0.8931   0.1965
  -2.500  -0.3101   0.05107   0.04579  -0.0018   0.9058   0.6028
  -2.750  -0.3261   0.05495   0.04996   0.0111   0.9164   0.6512
  -3.000  -0.3111   0.05769   0.05272   0.0134   0.9281   0.6709
  -3.500  -0.3226   0.06305   0.05807   0.0150   0.9487   0.6494
  -3.750  -0.3660   0.06531   0.06035   0.0117   0.9556   0.5782
  -4.000   0.0440   0.05471   0.04902  -0.0266   1.0000   1.0000
  -4.250   0.0543   0.05446   0.04870  -0.0288   1.0000   1.0000
  -4.500   0.0654   0.05405   0.04822  -0.0311   1.0000   1.0000
  -4.750  -0.4646   0.07711   0.07195  -0.0017   0.9847   0.3401
  -5.000  -0.4823   0.08065   0.07552   0.0008   0.9939   0.3093
  -5.250  -0.5033   0.08446   0.07933   0.0018   1.0000   0.2892
  -5.500  -0.4832   0.08594   0.08079   0.0007   1.0000   0.2796
  -6.000  -0.4559   0.08924   0.08397  -0.0044   1.0000   0.2656
  -6.250  -0.4360   0.09006   0.08471  -0.0076   1.0000   0.2594
  -6.000  -0.4559   0.08924   0.08397  -0.0044   1.0000   0.2656
  -6.100  -0.4455   0.08945   0.08414  -0.0055   1.0000   0.2631
  -6.200  -0.4382   0.08980   0.08447  -0.0069   1.0000   0.2607
  -6.500  -0.4439   0.09351   0.08807  -0.0114   1.0000   0.2532
  -6.750  -0.4036   0.09264   0.08707  -0.0155   1.0000   0.2523
  -7.000  -0.3641   0.09183   0.08606  -0.0202   1.0000   0.2512
  -7.250  -0.3414   0.09266   0.08669  -0.0210   1.0000   0.2443
  -7.500  -0.3607   0.09704   0.09102  -0.0220   1.0000   0.2360
  -7.750  -0.3425   0.09836   0.09217  -0.0193   1.0000   0.2277
  -8.000  -0.3691   0.10366   0.09746  -0.0209   1.0000   0.2200
  -8.250  -0.3485   0.10456   0.09820  -0.0169   1.0000   0.2130
  -8.000  -0.3691   0.10366   0.09746  -0.0209   1.0000   0.2200
  -8.100  -0.3550   0.10358   0.09729  -0.0187   1.0000   0.2183
  -8.200  -0.3485   0.10407   0.09772  -0.0173   1.0000   0.2149
  -8.500  -0.3838   0.11098   0.10464  -0.0197   1.0000   0.2038
  -8.750  -0.3588   0.11116   0.10465  -0.0148   1.0000   0.1994
  -9.000  -0.3695   0.11456   0.10802  -0.0145   1.0000   0.1906
  -9.250  -0.3804   0.11914   0.11256  -0.0140   1.0000   0.1862
  -9.500  -0.3710   0.12046   0.11378  -0.0110   1.0000   0.1802
  -9.750  -0.3841   0.12435   0.11766  -0.0108   1.0000   0.1739
 -10.000  -0.4037   0.13048   0.12377  -0.0113   1.0000   0.1703
 -10.250  -0.3888   0.13066   0.12384  -0.0074   1.0000   0.1669
 -10.500  -0.3922   0.13340   0.12654  -0.0058   1.0000   0.1613
 -10.750  -0.4100   0.13831   0.13147  -0.0062   1.0000   0.1562
 -11.000  -0.4226   0.14378   0.13691  -0.0057   1.0000   0.1536
 -11.250  -0.4112   0.14381   0.13686  -0.0021   1.0000   0.1506
 -11.500  -0.4146   0.14638   0.13939  -0.0004   1.0000   0.1453
 -11.750  -0.4303   0.15109   0.14411  -0.0005   1.0000   0.1401
 -12.000  -0.4506   0.15848   0.15149  -0.0008   1.0000   0.1374
 -12.250  -0.4396   0.15785   0.15079   0.0028   1.0000   0.1358
 -12.500  -0.4397   0.15952   0.15241   0.0052   1.0000   0.1321
 -12.750  -0.4466   0.16258   0.15546   0.0066   1.0000   0.1282
 -13.000  -0.4587   0.16680   0.15968   0.0072   1.0000   0.1246
 -13.250  -0.4892   0.17761   0.17052   0.0058   1.0000   0.1215
 -13.500  -0.4784   0.17592   0.16876   0.0095   1.0000   0.1206
 -13.750  -0.4754   0.17597   0.16877   0.0126   1.0000   0.1178
 -14.000  -0.4812   0.17846   0.17124   0.0144   1.0000   0.1139
 -14.250  -0.4908   0.18199   0.17476   0.0156   1.0000   0.1103
 -14.500  -0.5078   0.18822   0.18100   0.0157   1.0000   0.1074
 -14.750  -0.5276   0.19712   0.18991   0.0159   1.0000   0.1058
 -15.000  -0.5216   0.19527   0.18801   0.0194   1.0000   0.1051
 -15.250  -0.5218   0.19518   0.18788   0.0224   1.0000   0.1031
 -15.500  -0.5280   0.19738   0.19007   0.0246   1.0000   0.1000
 -15.750  -0.5367   0.20045   0.19313   0.0262   1.0000   0.0969
 -16.000  -0.5480   0.20456   0.19724   0.0273   1.0000   0.0939
 -16.250  -0.5808   0.22044   0.21316   0.0255   1.0000   0.0912
 -16.500  -0.5756   0.21754   0.21021   0.0290   1.0000   0.0909
 -16.750  -0.5747   0.21575   0.20837   0.0325   1.0000   0.0900
 -17.000  -0.5796   0.21655   0.20915   0.0354   1.0000   0.0880
 -17.250  -0.5874   0.21900   0.21160   0.0376   1.0000   0.0857
 -17.500  -0.5964   0.22197   0.21457   0.0395   1.0000   0.0833
 -17.750  -0.6063   0.22545   0.21805   0.0411   1.0000   0.0810
 -18.000  -0.6192   0.23100   0.22362   0.0418   1.0000   0.0789
 -18.250  -0.6393   0.24309   0.23571   0.0416   1.0000   0.0775
 -18.500  -0.6382   0.23956   0.23213   0.0455   1.0000   0.0770
 -18.750  -0.6422   0.23876   0.23131   0.0489   1.0000   0.0759
 -19.000  -0.6498   0.24048   0.23302   0.0516   1.0000   0.0741
 -19.250  -0.6586   0.24310   0.23565   0.0538   1.0000   0.0722
 -19.500  -0.6678   0.24605   0.23860   0.0559   1.0000   0.0704
 -19.750  -0.6774   0.24932   0.24188   0.0577   1.0000   0.0687
 -20.000  -0.6881   0.25363   0.24619   0.0591   1.0000   0.0671
