  
       XFOIL         Version 6.99
  
 Calculated polar for: NACA CYH                                        
  
 1 1 Reynolds number fixed          Mach number fixed         
  
 xtrf =   1.000 (top)        1.000 (bottom)  
 Mach =   0.000     Re =     0.050 e 6     Ncrit =   9.000
  
   alpha    CL        CD       CDp       CM     Top_Xtr  Bot_Xtr
  ------ -------- --------- --------- -------- -------- --------
   0.000   0.2985   0.03033   0.02011  -0.0567   0.8565   1.0000
   0.250   0.3406   0.03076   0.02047  -0.0593   0.8405   1.0000
   0.500   0.3767   0.03118   0.02084  -0.0607   0.8239   1.0000
   0.750   0.4097   0.03161   0.02123  -0.0614   0.8070   1.0000
   1.000   0.4402   0.03205   0.02165  -0.0616   0.7900   1.0000
   1.250   0.4687   0.03251   0.02208  -0.0614   0.7730   1.0000
   1.500   0.4957   0.03298   0.02253  -0.0609   0.7560   1.0000
   1.750   0.5210   0.03349   0.02304  -0.0601   0.7393   1.0000
   2.000   0.5449   0.03405   0.02358  -0.0591   0.7230   1.0000
   2.250   0.5674   0.03467   0.02420  -0.0579   0.7073   1.0000
   2.500   0.5891   0.03535   0.02490  -0.0568   0.6924   1.0000
   2.750   0.6131   0.03591   0.02546  -0.0557   0.6787   1.0000
   3.000   0.6431   0.03610   0.02566  -0.0551   0.6668   1.0000
   3.250   0.6557   0.03735   0.02693  -0.0534   0.6523   1.0000
   3.500   0.6668   0.03876   0.02838  -0.0517   0.6385   1.0000
   3.750   0.6784   0.04020   0.02985  -0.0502   0.6254   1.0000
   4.000   0.6978   0.04119   0.03088  -0.0491   0.6144   1.0000
   4.250   0.7278   0.04133   0.03108  -0.0484   0.6043   1.0000
   4.500   0.7312   0.04348   0.03328  -0.0467   0.5911   1.0000
   4.750   0.7380   0.04544   0.03529  -0.0453   0.5786   1.0000
   5.000   0.7605   0.04613   0.03604  -0.0442   0.5678   1.0000
   5.250   0.7959   0.04560   0.03562  -0.0434   0.5575   1.0000
   5.500   0.7942   0.04833   0.03841  -0.0417   0.5441   1.0000
   5.750   0.7958   0.05086   0.04100  -0.0403   0.5313   1.0000
   6.000   0.8112   0.05210   0.04233  -0.0390   0.5191   1.0000
   6.250   0.8681   0.04913   0.03952  -0.0378   0.5081   1.0000
   6.500   0.9075   0.04762   0.03812  -0.0364   0.4945   1.0000
   6.750   0.9362   0.04699   0.03760  -0.0348   0.4792   1.0000
   7.000   0.9835   0.04445   0.03516  -0.0335   0.4629   1.0000
   7.250   0.9992   0.04505   0.03586  -0.0315   0.4456   1.0000
   7.500   1.0154   0.04563   0.03656  -0.0296   0.4280   1.0000
   7.750   1.0369   0.04581   0.03685  -0.0278   0.4099   1.0000
   8.000   1.0732   0.04469   0.03576  -0.0267   0.3901   1.0000
   8.250   1.1164   0.04336   0.03432  -0.0261   0.3694   1.0000
   8.500   1.1238   0.04510   0.03622  -0.0239   0.3513   1.0000
   8.750   1.1353   0.04672   0.03794  -0.0220   0.3343   1.0000
   9.000   1.1478   0.04842   0.03974  -0.0204   0.3188   1.0000
   9.250   1.1623   0.05000   0.04139  -0.0189   0.3044   1.0000
   9.500   1.1826   0.05125   0.04267  -0.0178   0.2908   1.0000
   9.750   1.1400   0.05717   0.04895  -0.0139   0.2857   1.0000
  10.000   1.1022   0.06291   0.05482  -0.0112   0.2813   1.0000
  10.250   1.0517   0.07116   0.06309  -0.0107   0.2785   1.0000
  10.250   1.0517   0.07116   0.06309  -0.0107   0.2785   1.0000
  10.350   1.0281   0.07561   0.06753  -0.0116   0.2775   1.0000
  10.450   1.0010   0.08110   0.07297  -0.0132   0.2767   1.0000
  10.750   0.8203   0.11643   0.10772  -0.0304   0.2883   1.0000
  11.000   0.8102   0.12296   0.11426  -0.0325   0.2892   1.0000
  11.250   0.8154   0.12834   0.11972  -0.0338   0.2915   1.0000
  11.250   0.8154   0.12834   0.11972  -0.0338   0.2915   1.0000
  13.750   0.7967   0.18015   0.17197  -0.0533   0.3230   1.0000
  14.000   0.7805   0.18019   0.17198  -0.0550   0.3150   1.0000
  14.250   0.8010   0.18601   0.17792  -0.0553   0.3067   1.0000
  14.500   0.7979   0.18742   0.17936  -0.0566   0.2957   1.0000
  14.750   0.8003   0.19057   0.18254  -0.0578   0.2851   1.0000
  15.000   0.8078   0.19405   0.18607  -0.0585   0.2707   1.0000
  15.250   0.8157   0.19789   0.18996  -0.0593   0.2572   1.0000
  15.500   0.8273   0.20253   0.19467  -0.0598   0.2447   1.0000
  15.750   0.8460   0.20865   0.20086  -0.0597   0.2316   1.0000
  16.000   0.8337   0.20871   0.20086  -0.0631   0.2258   1.0000
  16.250   0.8521   0.21478   0.20699  -0.0630   0.2166   1.0000
  16.500   0.8474   0.21580   0.20798  -0.0659   0.2093   1.0000
  16.750   0.8706   0.22345   0.21570  -0.0653   0.2029   1.0000
  17.000   0.8611   0.22318   0.21537  -0.0691   0.1982   1.0000
  17.250   0.8820   0.22941   0.22169  -0.0686   0.1896   1.0000
  17.500   0.8785   0.23086   0.22308  -0.0719   0.1867   1.0000
  17.750   0.8832   0.23338   0.22561  -0.0741   0.1801   1.0000
  18.000   0.9071   0.24173   0.23407  -0.0732   0.1752   1.0000
  18.250   0.9007   0.24143   0.23369  -0.0772   0.1729   1.0000
  18.500   0.9051   0.24359   0.23586  -0.0796   0.1664   1.0000
  18.750   0.9321   0.25385   0.24621  -0.0780   0.1609   1.0000
  19.000   0.9231   0.25150   0.24378  -0.0827   0.1589   1.0000
  19.250   0.9273   0.25355   0.24584  -0.0854   0.1536   1.0000
  19.500   0.9389   0.25761   0.24994  -0.0864   0.1494   1.0000
  19.750   0.9576   0.26653   0.25892  -0.0862   0.1468   1.0000
  20.000   0.9522   0.26432   0.25666  -0.0909   0.1444   1.0000
   0.000   0.2985   0.03033   0.02011  -0.0567   0.8565   1.0000
  -0.250   0.2554   0.02987   0.01974  -0.0537   0.8723   1.0000
  -0.500   0.2128   0.02935   0.01934  -0.0507   0.8878   1.0000
  -0.750   0.1705   0.02880   0.01892  -0.0476   0.9031   1.0000
  -1.000   0.1271   0.02821   0.01852  -0.0441   0.9184   1.0000
  -1.250   0.0821   0.02759   0.01811  -0.0403   0.9340   1.0000
  -1.500   0.0345   0.02693   0.01773  -0.0358   0.9501   1.0000
  -1.750  -0.0158   0.02621   0.01734  -0.0308   0.9664   1.0000
  -2.000  -0.0679   0.02543   0.01700  -0.0252   0.9820   1.0000
  -2.250  -0.1229   0.02454   0.01675  -0.0191   0.9950   1.0000
  -2.500  -0.2063   0.02794   0.01733  -0.0118   1.0000   0.2789
  -2.750  -0.2316   0.02867   0.01781  -0.0119   1.0000   0.2296
  -3.000  -0.2561   0.02930   0.01846  -0.0122   1.0000   0.2043
  -3.250  -0.2799   0.03009   0.01932  -0.0125   1.0000   0.1906
  -3.500  -0.3019   0.03094   0.02014  -0.0129   1.0000   0.1797
  -3.750  -0.3246   0.03180   0.02129  -0.0134   1.0000   0.1711
  -4.000  -0.3466   0.03298   0.02254  -0.0138   1.0000   0.1665
  -4.250  -0.3695   0.03453   0.02440  -0.0142   1.0000   0.1642
  -4.500  -0.3920   0.03619   0.02652  -0.0147   1.0000   0.1626
  -4.750  -0.4130   0.03804   0.02882  -0.0152   1.0000   0.1607
  -5.000  -0.4318   0.04015   0.03135  -0.0158   1.0000   0.1598
  -5.250  -0.4488   0.04266   0.03423  -0.0165   1.0000   0.1619
  -5.500  -0.4640   0.04530   0.03707  -0.0174   1.0000   0.1645
  -5.750  -0.4763   0.04956   0.04213  -0.0175   1.0000   0.1775
  -5.750  -0.4763   0.04956   0.04213  -0.0175   1.0000   0.1775
  -5.850  -0.4810   0.05073   0.04330  -0.0180   1.0000   0.1795
  -5.950  -0.4863   0.05189   0.04444  -0.0186   1.0000   0.1812
  -6.000  -0.4847   0.05540   0.04871  -0.0159   1.0000   0.2070
  -6.100  -0.4904   0.05677   0.05007  -0.0165   1.0000   0.2140
  -6.350  -0.3409   0.06865   0.06277   0.0114   1.0000   0.5350
  -6.450  -0.3525   0.06997   0.06409   0.0111   1.0000   0.5251
  -6.750  -0.3715   0.07350   0.06756   0.0079   1.0000   0.4893
  -6.750  -0.3715   0.07350   0.06756   0.0079   1.0000   0.4893
  -6.850  -0.3568   0.07328   0.06724   0.0052   1.0000   0.4769
  -6.950  -0.3503   0.07384   0.06772   0.0034   1.0000   0.4648
  -7.250  -0.3639   0.07742   0.07123   0.0011   1.0000   0.4377
  -7.500  -0.3624   0.07960   0.07330  -0.0010   1.0000   0.4145
  -7.500  -0.3624   0.07960   0.07330  -0.0010   1.0000   0.4145
  -7.600  -0.3855   0.08203   0.07578  -0.0013   1.0000   0.4071
  -7.700  -0.3675   0.08182   0.07547  -0.0022   1.0000   0.3974
  -8.000  -0.3890   0.08625   0.07986  -0.0039   1.0000   0.3739
  -8.250  -0.3832   0.08850   0.08199  -0.0047   1.0000   0.3556
  -8.500  -0.3886   0.09154   0.08497  -0.0054   1.0000   0.3395
  -8.750  -0.4124   0.09599   0.08944  -0.0066   1.0000   0.3257
  -8.750  -0.4124   0.09599   0.08944  -0.0066   1.0000   0.3257
  -8.850  -0.3880   0.09533   0.08864  -0.0055   1.0000   0.3195
  -8.950  -0.3944   0.09667   0.09000  -0.0058   1.0000   0.3139
  -9.250  -0.3955   0.10025   0.09348  -0.0055   1.0000   0.2998
  -9.500  -0.4055   0.10408   0.09728  -0.0055   1.0000   0.2906
  -9.750  -0.4370   0.10961   0.10285  -0.0074   1.0000   0.2770
 -10.000  -0.4081   0.10975   0.10283  -0.0046   1.0000   0.2678
 -10.250  -0.4212   0.11394   0.10699  -0.0048   1.0000   0.2586
 -10.500  -0.4294   0.11705   0.11009  -0.0048   1.0000   0.2467
 -10.750  -0.4232   0.11971   0.11266  -0.0032   1.0000   0.2400
 -11.000  -0.4385   0.12371   0.11668  -0.0036   1.0000   0.2305
 -11.250  -0.4353   0.12668   0.11958  -0.0020   1.0000   0.2255
 -11.500  -0.4392   0.12952   0.12239  -0.0012   1.0000   0.2167
 -11.750  -0.4540   0.13459   0.12745  -0.0013   1.0000   0.2114
 -12.000  -0.4451   0.13587   0.12866   0.0009   1.0000   0.2037
 -12.250  -0.4730   0.14267   0.13549  -0.0006   1.0000   0.1962
 -12.500  -0.4555   0.14264   0.13536   0.0027   1.0000   0.1912
 -12.750  -0.4682   0.14658   0.13931   0.0027   1.0000   0.1836
 -13.000  -0.4813   0.15192   0.14465   0.0030   1.0000   0.1801
 -13.250  -0.4711   0.15249   0.14516   0.0059   1.0000   0.1750
 -13.500  -0.4810   0.15614   0.14880   0.0064   1.0000   0.1689
 -13.750  -0.5027   0.16320   0.15587   0.0058   1.0000   0.1648
 -14.000  -0.4898   0.16269   0.15529   0.0092   1.0000   0.1612
 -14.250  -0.4961   0.16563   0.15821   0.0103   1.0000   0.1548
 -14.500  -0.5269   0.17499   0.16762   0.0087   1.0000   0.1496
 -14.750  -0.5129   0.17356   0.16610   0.0124   1.0000   0.1478
 -15.000  -0.5134   0.17523   0.16774   0.0145   1.0000   0.1432
 -15.250  -0.5228   0.17876   0.17129   0.0155   1.0000   0.1386
 -15.500  -0.5566   0.19023   0.18280   0.0137   1.0000   0.1344
 -15.750  -0.5437   0.18792   0.18042   0.0174   1.0000   0.1334
 -16.000  -0.5419   0.18829   0.18075   0.0203   1.0000   0.1295
 -16.250  -0.5497   0.19130   0.18375   0.0217   1.0000   0.1247
 -16.500  -0.5690   0.19811   0.19059   0.0212   1.0000   0.1204
 -16.750  -0.5795   0.20357   0.19602   0.0224   1.0000   0.1189
 -17.000  -0.5751   0.20221   0.19461   0.0260   1.0000   0.1172
 -17.250  -0.5797   0.20403   0.19641   0.0284   1.0000   0.1137
 -17.500  -0.5881   0.20710   0.19949   0.0300   1.0000   0.1102
 -17.750  -0.5999   0.21137   0.20377   0.0308   1.0000   0.1071
 -18.000  -0.6256   0.22372   0.21615   0.0296   1.0000   0.1045
 -18.250  -0.6197   0.22043   0.21279   0.0335   1.0000   0.1037
 -18.500  -0.6213   0.22015   0.21248   0.0369   1.0000   0.1012
 -18.750  -0.6287   0.22260   0.21493   0.0390   1.0000   0.0978
 -19.000  -0.6381   0.22586   0.21818   0.0406   1.0000   0.0948
 -19.250  -0.6498   0.23037   0.22270   0.0415   1.0000   0.0923
 -19.500  -0.6760   0.24526   0.23765   0.0400   1.0000   0.0903
 -19.750  -0.6730   0.24179   0.23412   0.0438   1.0000   0.0899
 -20.000  -0.6743   0.24019   0.23249   0.0475   1.0000   0.0888
