  
       XFOIL         Version 6.99
  
 Calculated polar for: UA(2)-180 (University of Alberta/Marsden)       
  
 1 1 Reynolds number fixed          Mach number fixed         
  
 xtrf =   1.000 (top)        1.000 (bottom)  
 Mach =   0.000     Re =     0.050 e 6     Ncrit =   9.000
  
   alpha    CL        CD       CDp       CM     Top_Xtr  Bot_Xtr
  ------ -------- --------- --------- -------- -------- --------
   0.000  -0.1627   0.08514   0.07745  -0.0558   0.8337   0.1724
   0.250  -0.1383   0.08441   0.07612  -0.0558   0.8271   0.1563
   0.500  -0.1084   0.08438   0.07524  -0.0559   0.8169   0.1445
   0.750  -0.0701   0.08556   0.07613  -0.0580   0.8129   0.1426
   1.000  -0.0681   0.08376   0.07422  -0.0552   0.8013   0.1413
   1.250  -0.0326   0.08497   0.07510  -0.0567   0.7961   0.1387
   1.500  -0.0249   0.08433   0.07428  -0.0548   0.7865   0.1370
   1.750   0.0088   0.08552   0.07516  -0.0560   0.7793   0.1352
   2.000   0.0226   0.08592   0.07538  -0.0548   0.7720   0.1348
   2.250   0.0477   0.08680   0.07609  -0.0550   0.7630   0.1368
   2.500   0.0906   0.09002   0.07903  -0.0577   0.7592   0.1421
   2.750   0.0894   0.08898   0.07789  -0.0550   0.7480   0.1441
   3.000   0.1268   0.09141   0.08028  -0.0571   0.7428   0.1508
   3.250   0.1307   0.09134   0.08017  -0.0553   0.7332   0.1552
   3.500   0.1634   0.09352   0.08229  -0.0567   0.7264   0.1684
   3.750   0.1718   0.09408   0.08289  -0.0556   0.7177   0.1836
   4.000   0.2243   0.09482   0.08607  -0.0613   0.7096   1.0000
   4.250   0.2310   0.09578   0.08668  -0.0596   0.6999   1.0000
   4.500   0.2626   0.09876   0.08918  -0.0607   0.6921   1.0000
   4.750   0.2646   0.09933   0.08958  -0.0589   0.6813   1.0000
   5.000   0.2989   0.10295   0.09286  -0.0605   0.6750   1.0000
   5.250   0.2959   0.10309   0.09291  -0.0584   0.6637   1.0000
   5.500   0.3302   0.10693   0.09648  -0.0601   0.6580   1.0000
   5.750   0.3251   0.10697   0.09647  -0.0580   0.6465   1.0000
   6.000   0.3606   0.11107   0.10034  -0.0598   0.6408   1.0000
   6.250   0.3530   0.11099   0.10022  -0.0577   0.6291   1.0000
   6.500   0.3867   0.11500   0.10404  -0.0593   0.6237   1.0000
   6.750   0.3774   0.11509   0.10411  -0.0573   0.6137   1.0000
   7.000   0.4045   0.11833   0.10721  -0.0583   0.6074   1.0000
   7.250   0.4032   0.11958   0.10842  -0.0573   0.6000   1.0000
   7.500   0.4219   0.12189   0.11063  -0.0576   0.5919   1.0000
   7.500   0.4219   0.12189   0.11063  -0.0576   0.5919   1.0000
   7.600   0.4352   0.12358   0.11226  -0.0582   0.5900   1.0000
   7.700   0.4512   0.12586   0.11448  -0.0591   0.5887   1.0000
   8.000   0.4397   0.12580   0.11442  -0.0571   0.5778   1.0000
   8.250   0.4651   0.12917   0.11769  -0.0581   0.5729   1.0000
   8.500   0.4720   0.13155   0.12003  -0.0580   0.5693   1.0000
   8.750   0.4734   0.13238   0.12085  -0.0573   0.5607   1.0000
   9.000   0.4979   0.13571   0.12411  -0.0582   0.5558   1.0000
   9.250   0.5093   0.13865   0.12700  -0.0585   0.5525   1.0000
   9.500   0.5060   0.13899   0.12734  -0.0577   0.5446   1.0000
   9.750   0.5251   0.14181   0.13012  -0.0583   0.5398   1.0000
  10.000   0.5558   0.14688   0.13514  -0.0597   0.5369   1.0000
  10.250   0.5392   0.14598   0.13426  -0.0585   0.5311   1.0000
  10.500   0.5522   0.14808   0.13635  -0.0588   0.5247   1.0000
  10.750   0.5768   0.15197   0.14021  -0.0597   0.5209   1.0000
  11.000   0.5823   0.15431   0.14255  -0.0599   0.5181   1.0000
  11.250   0.5809   0.15466   0.14292  -0.0597   0.5107   1.0000
  11.500   0.5997   0.15761   0.14587  -0.0603   0.5057   1.0000
  11.500   0.5997   0.15761   0.14587  -0.0603   0.5057   1.0000
  11.600   0.6102   0.15941   0.14766  -0.0608   0.5044   1.0000
  11.700   0.6225   0.16176   0.15001  -0.0613   0.5034   1.0000
  12.000   0.6130   0.16178   0.15005  -0.0611   0.4978   1.0000
  12.250   0.6250   0.16387   0.15216  -0.0615   0.4916   1.0000
  12.500   0.6470   0.16775   0.15605  -0.0624   0.4880   1.0000
  12.750   0.6579   0.17103   0.15935  -0.0632   0.4858   1.0000
  13.000   0.6523   0.17069   0.15904  -0.0632   0.4795   1.0000
  13.250   0.6681   0.17340   0.16177  -0.0639   0.4743   1.0000
  13.500   0.6944   0.17872   0.16711  -0.0650   0.4714   1.0000
  13.750   0.6848   0.17813   0.16654  -0.0653   0.4676   1.0000
  14.000   0.6928   0.17984   0.16829  -0.0659   0.4622   1.0000
  14.250   0.7094   0.18297   0.17147  -0.0667   0.4584   1.0000
  14.250   0.7094   0.18297   0.17147  -0.0667   0.4584   1.0000
  14.350   0.7185   0.18487   0.17339  -0.0671   0.4573   1.0000
  14.450   0.7284   0.18720   0.17574  -0.0676   0.4565   1.0000
  14.750   0.7229   0.18721   0.17578  -0.0683   0.4523   1.0000
  15.000   0.7323   0.18904   0.17765  -0.0691   0.4467   1.0000
  15.250   0.7506   0.19259   0.18124  -0.0699   0.4429   1.0000
  15.500   0.7668   0.19696   0.18568  -0.0710   0.4409   1.0000
  15.750   0.7607   0.19606   0.18482  -0.0717   0.4366   1.0000
  16.000   0.7709   0.19814   0.18695  -0.0726   0.4319   1.0000
  16.250   0.7880   0.20167   0.19054  -0.0735   0.4284   1.0000
  16.500   0.8023   0.20575   0.19468  -0.0746   0.4261   1.0000
  16.750   0.7984   0.20493   0.19392  -0.0756   0.4208   1.0000
  17.000   0.8108   0.20740   0.19646  -0.0765   0.4160   1.0000
  17.250   0.8307   0.21209   0.20124  -0.0774   0.4129   1.0000
  17.500   0.8296   0.21253   0.20172  -0.0787   0.4096   1.0000
  17.750   0.8371   0.21395   0.20320  -0.0797   0.4031   1.0000
  18.000   0.8567   0.21834   0.20772  -0.0806   0.3988   1.0000
  18.250   0.8567   0.21905   0.20847  -0.0819   0.3948   1.0000
  18.500   0.8661   0.22085   0.21036  -0.0830   0.3878   1.0000
  18.750   0.8890   0.22680   0.21643  -0.0839   0.3838   1.0000
  19.000   0.8820   0.22537   0.21502  -0.0855   0.3779   1.0000
  19.250   0.8951   0.22818   0.21796  -0.0865   0.3721   1.0000
  19.500   0.9117   0.23326   0.22313  -0.0876   0.3689   1.0000
  19.750   0.9080   0.23233   0.22226  -0.0893   0.3616   1.0000
  20.000   0.9257   0.23648   0.22653  -0.0901   0.3561   1.0000
   0.000  -0.1627   0.08514   0.07745  -0.0558   0.8337   0.1724
  -0.250  -0.1973   0.08678   0.07945  -0.0542   0.8408   0.1973
  -0.500  -0.2105   0.10371   0.10003   0.0126   0.8596   0.8485
  -0.750  -0.1482   0.10599   0.10223   0.0014   0.8691   0.8828
  -1.000  -0.0814   0.10794   0.10407  -0.0118   0.8820   0.9205
  -1.250  -0.0151   0.10837   0.10442  -0.0263   0.8904   0.9674
  -1.500  -0.1381   0.11147   0.10766  -0.0024   0.8977   0.8827
  -1.750   0.0483   0.11041   0.10636  -0.0429   0.9168   1.0000
  -2.000  -0.4502   0.11020   0.10647   0.0029   0.9003   0.4599
  -2.250  -0.4573   0.11119   0.10743  -0.0010   0.9066   0.4090
  -2.500  -0.4575   0.11354   0.10972  -0.0062   0.9158   0.3853
  -2.750  -0.4682   0.11508   0.11127  -0.0064   0.9227   0.3507
  -3.000  -0.4697   0.11743   0.11361  -0.0088   0.9316   0.3311
  -3.250  -0.4849   0.11954   0.11570  -0.0101   0.9395   0.3100
  -3.500  -0.4885   0.12199   0.11816  -0.0105   0.9477   0.2919
  -3.750  -0.4920   0.12475   0.12093  -0.0089   0.9576   0.2748
  -4.000  -0.4937   0.12738   0.12359  -0.0063   0.9643   0.2605
  -4.250  -0.5181   0.13124   0.12733  -0.0131   0.9714   0.2524
  -4.500  -0.5110   0.13268   0.12890  -0.0054   0.9802   0.2372
  -4.750  -0.5057   0.13571   0.13192  -0.0026   0.9869   0.2295
  -5.000  -0.5194   0.13816   0.13439  -0.0023   0.9935   0.2186
  -5.250  -0.5144   0.14112   0.13732   0.0007   0.9991   0.2129
  -5.500  -0.4869   0.14249   0.13865  -0.0006   1.0000   0.2082
  -5.750  -0.4891   0.14477   0.14091  -0.0024   1.0000   0.2015
  -6.000  -0.5014   0.14891   0.14502  -0.0037   1.0000   0.1968
  -6.250  -0.4655   0.14942   0.14547  -0.0049   1.0000   0.1949
  -6.500  -0.4449   0.15058   0.14659  -0.0057   1.0000   0.1903
  -6.750  -0.4445   0.15268   0.14867  -0.0072   1.0000   0.1840
  -7.000  -0.4689   0.15786   0.15385  -0.0091   1.0000   0.1790
  -7.250  -0.4370   0.15784   0.15376  -0.0092   1.0000   0.1776
  -7.500  -0.4169   0.15850   0.15437  -0.0094   1.0000   0.1738
  -7.750  -0.4105   0.16011   0.15595  -0.0102   1.0000   0.1687
  -8.000  -0.4526   0.16734   0.16321  -0.0135   1.0000   0.1616
  -8.250  -0.4246   0.16693   0.16275  -0.0131   1.0000   0.1609
  -8.500   0.1474   0.10929   0.10334  -0.1139   0.7861   0.2485
  -8.750   0.1509   0.10936   0.10335  -0.1148   0.7878   0.2388
  -9.000   0.1370   0.11222   0.10617  -0.1154   0.7899   0.2329
  -9.250   0.1566   0.11053   0.10436  -0.1151   0.7919   0.2252
  -9.500   0.1136   0.11702   0.11089  -0.1161   0.7949   0.2159
  -9.750   0.1441   0.11407   0.10783  -0.1146   0.7969   0.2124
 -10.000   0.1405   0.11530   0.10906  -0.1141   0.7997   0.2033
 -10.250   0.1100   0.12104   0.11484  -0.1142   0.8030   0.1973
 -10.500   0.1296   0.11907   0.11278  -0.1123   0.8059   0.1926
 -10.750   0.1221   0.12072   0.11439  -0.1113   0.8093   0.1853
 -11.000   0.0849   0.12796   0.12165  -0.1115   0.8132   0.1794
 -11.250   0.1051   0.12556   0.11919  -0.1092   0.8157   0.1766
 -11.500   0.1030   0.12662   0.12025  -0.1078   0.8191   0.1697
 -11.750   0.0560   0.13606   0.12976  -0.1088   0.8243   0.1617
 -12.000   0.0740   0.13365   0.12726  -0.1062   0.8282   0.1605
 -12.250   0.0802   0.13320   0.12678  -0.1042   0.8324   0.1556
 -12.500   0.0697   0.13553   0.12916  -0.1032   0.8376   0.1496
 -12.750   0.0302   0.14462   0.13832  -0.1036   0.8451   0.1443
 -13.000   0.0447   0.14232   0.13598  -0.1009   0.8504   0.1429
 -13.250   0.0455   0.14254   0.13623  -0.0986   0.8564   0.1389
 -13.500   0.0363   0.14476   0.13848  -0.0971   0.8645   0.1341
 -13.750   0.0124   0.14994   0.14377  -0.0959   0.8730   0.1294
 -14.000  -0.0088   0.15592   0.14980  -0.0942   0.8836   0.1275
 -14.250  -0.0035   0.15435   0.14829  -0.0902   0.8919   0.1253
 -14.500  -0.0147   0.15636   0.15039  -0.0864   0.9034   0.1211
 -14.750  -0.0357   0.16014   0.15428  -0.0820   0.9176   0.1168
 -15.000  -0.0856   0.17127   0.16559  -0.0772   0.9333   0.1123
 -15.250  -0.0993   0.17324   0.16760  -0.0701   0.9452   0.1111
 -15.250  -0.0993   0.17324   0.16759  -0.0701   0.9452   0.1111
 -15.350  -0.1033   0.17301   0.16739  -0.0667   0.9496   0.1103
 -15.450  -0.1103   0.17358   0.16798  -0.0635   0.9554   0.1090
 -15.750  -0.1439   0.17856   0.17305  -0.0536   0.9787   0.1034
 -16.000  -0.1539   0.17996   0.17420  -0.0496   1.0000   0.1007
 -16.250  -0.1682   0.18411   0.17811  -0.0485   1.0000   0.0983
 -16.500  -0.1897   0.19224   0.18605  -0.0474   1.0000   0.0967
 -16.750  -0.1844   0.18969   0.18333  -0.0447   1.0000   0.0960
 -17.000  -0.1862   0.18950   0.18302  -0.0422   1.0000   0.0941
 -17.250  -0.1932   0.19128   0.18469  -0.0403   1.0000   0.0916
 -17.500  -0.2020   0.19372   0.18702  -0.0387   1.0000   0.0892
 -17.750  -0.2120   0.19659   0.18980  -0.0374   1.0000   0.0871
 -18.000  -0.2246   0.20053   0.19368  -0.0364   1.0000   0.0852
 -18.250  -0.2517   0.21246   0.20552  -0.0366   1.0000   0.0835
 -18.500  -0.2492   0.21013   0.20311  -0.0341   1.0000   0.0832
 -18.750  -0.2507   0.20919   0.20208  -0.0317   1.0000   0.0825
 -19.000  -0.2557   0.20981   0.20263  -0.0295   1.0000   0.0811
 -19.250  -0.2634   0.21171   0.20447  -0.0276   1.0000   0.0792
 -19.500  -0.2722   0.21408   0.20678  -0.0260   1.0000   0.0774
 -19.750  -0.2817   0.21673   0.20939  -0.0245   1.0000   0.0757
 -20.000  -0.2921   0.21988   0.21249  -0.0231   1.0000   0.0741
