  
       XFOIL         Version 6.99
  
 Calculated polar for: FX 73-K-170/22                                  
  
 1 1 Reynolds number fixed          Mach number fixed         
  
 xtrf =   1.000 (top)        1.000 (bottom)  
 Mach =   0.000     Re =     0.050 e 6     Ncrit =   9.000
  
   alpha    CL        CD       CDp       CM     Top_Xtr  Bot_Xtr
  ------ -------- --------- --------- -------- -------- --------
   0.000  -0.2112   0.04933   0.04134  -0.0160   1.0000   1.0000
   0.250  -0.2118   0.04852   0.04042  -0.0138   1.0000   1.0000
   0.500  -0.2114   0.04778   0.03956  -0.0118   1.0000   1.0000
   0.750  -0.2085   0.04718   0.03883  -0.0102   1.0000   1.0000
   1.000  -0.2019   0.04687   0.03837  -0.0092   1.0000   1.0000
   1.250  -0.1785   0.04783   0.03911  -0.0115   0.9963   1.0000
   1.500  -0.1462   0.04948   0.04052  -0.0153   0.9886   1.0000
   1.750  -0.1154   0.05095   0.04176  -0.0188   0.9796   1.0000
   1.750  -0.1154   0.05095   0.04176  -0.0188   0.9796   1.0000
   1.850  -0.0998   0.05209   0.04281  -0.0208   0.9774   1.0000
   1.950  -0.0928   0.05204   0.04271  -0.0211   0.9725   1.0000
   2.250  -0.0531   0.05444   0.04486  -0.0256   0.9632   1.0000
   2.500  -0.0213   0.05610   0.04636  -0.0290   0.9526   1.0000
   2.750   0.0031   0.05723   0.04734  -0.0309   0.9423   1.0000
   3.000   0.0430   0.06031   0.05025  -0.0358   0.9358   1.0000
   3.250   0.0626   0.06082   0.05066  -0.0368   0.9241   1.0000
   3.500   0.0869   0.06235   0.05209  -0.0387   0.9149   1.0000
   3.750   0.1224   0.06492   0.05453  -0.0426   0.9065   1.0000
   4.000   0.1397   0.06574   0.05528  -0.0432   0.8959   1.0000
   4.250   0.1794   0.06926   0.05867  -0.0478   0.8900   1.0000
   4.500   0.1924   0.06952   0.05891  -0.0477   0.8784   1.0000
   4.750   0.2130   0.07120   0.06053  -0.0490   0.8706   1.0000
   5.000   0.2444   0.07367   0.06293  -0.0519   0.8615   1.0000
   5.250   0.2573   0.07466   0.06390  -0.0520   0.8523   1.0000
   5.500   0.2941   0.07803   0.06722  -0.0558   0.8452   1.0000
   5.750   0.3020   0.07850   0.06768  -0.0551   0.8347   1.0000
   6.000   0.3338   0.08178   0.07092  -0.0581   0.8288   1.0000
   6.250   0.3459   0.08262   0.07178  -0.0580   0.8177   1.0000
   6.500   0.3629   0.08461   0.07376  -0.0589   0.8107   1.0000
   6.750   0.3881   0.08694   0.07610  -0.0607   0.8011   1.0000
   7.000   0.3974   0.08837   0.07756  -0.0605   0.7928   1.0000
   7.250   0.4284   0.09150   0.08070  -0.0632   0.7848   1.0000
   7.500   0.4331   0.09247   0.08170  -0.0624   0.7750   1.0000
   8.000   0.4692   0.09693   0.08625  -0.0644   0.7575   1.0000
   7.850   0.4586   0.09581   0.08511  -0.0639   0.7644   1.0000
   7.950   0.4636   0.09637   0.08569  -0.0640   0.7593   1.0000
   8.250   0.4893   0.09977   0.08914  -0.0658   0.7509   1.0000
   8.500   0.5079   0.10186   0.09128  -0.0668   0.7399   1.0000
   8.750   0.5141   0.10350   0.09301  -0.0665   0.7305   1.0000
   9.000   0.5487   0.10764   0.09721  -0.0695   0.7228   1.0000
   9.250   0.5493   0.10843   0.09807  -0.0685   0.7114   1.0000
   9.500   0.5586   0.11060   0.10032  -0.0688   0.7023   1.0000
   9.750   0.5902   0.11446   0.10429  -0.0713   0.6932   1.0000
  10.000   0.5961   0.11587   0.10579  -0.0711   0.6809   1.0000
  10.250   0.6014   0.11784   0.10784  -0.0710   0.6705   1.0000
  10.500   0.6166   0.12062   0.11072  -0.0720   0.6605   1.0000
  10.750   0.6449   0.12426   0.11448  -0.0739   0.6492   1.0000
  11.000   0.6532   0.12608   0.11642  -0.0741   0.6362   1.0000
  11.250   0.6569   0.12809   0.11853  -0.0741   0.6243   1.0000
  11.500   0.6667   0.13068   0.12122  -0.0747   0.6132   1.0000
  11.750   0.6817   0.13355   0.12421  -0.0756   0.6011   1.0000
  12.000   0.7023   0.13681   0.12760  -0.0769   0.5887   1.0000
  12.250   0.7168   0.13939   0.13033  -0.0775   0.5739   1.0000
  12.500   0.7328   0.14214   0.13322  -0.0783   0.5593   1.0000
  12.750   0.7419   0.14443   0.13562  -0.0787   0.5437   1.0000
  13.000   0.8232   0.13561   0.12708  -0.0736   0.4517   1.0000
  13.250   0.8358   0.13714   0.12876  -0.0734   0.4328   1.0000
  13.500   0.8546   0.13848   0.13027  -0.0732   0.4150   1.0000
  13.750   0.8934   0.13736   0.12942  -0.0719   0.3922   1.0000
  14.000   0.8999   0.13947   0.13166  -0.0717   0.3745   1.0000
  14.250   0.9173   0.14006   0.13244  -0.0709   0.3547   1.0000
  14.500   0.9586   0.13654   0.12925  -0.0680   0.3314   1.0000
  14.750   0.9624   0.13855   0.13139  -0.0676   0.3112   1.0000
  15.000   1.2483   0.08161   0.07388  -0.0414   0.1808   1.0000
  15.250   1.2638   0.08317   0.07513  -0.0398   0.1550   1.0000
  15.500   1.2740   0.08579   0.07777  -0.0387   0.1387   1.0000
  15.750   1.2890   0.08819   0.08018  -0.0378   0.1252   1.0000
  16.000   1.3075   0.09064   0.08261  -0.0370   0.1140   1.0000
  16.250   1.2977   0.09531   0.08766  -0.0367   0.1097   1.0000
  16.500   1.3161   0.09810   0.09042  -0.0362   0.1016   1.0000
  16.750   1.2947   0.10373   0.09642  -0.0365   0.1004   1.0000
  17.000   1.2728   0.10987   0.10290  -0.0374   0.0997   1.0000
  17.250   1.2487   0.11661   0.10994  -0.0390   0.0997   1.0000
  17.500   1.2207   0.12427   0.11786  -0.0416   0.1002   1.0000
  17.750   1.1926   0.13266   0.12645  -0.0450   0.1012   1.0000
  18.000   1.1634   0.14197   0.13590  -0.0494   0.1022   1.0000
  18.750   0.9931   0.20793   0.20151  -0.0887   0.1440   1.0000
  18.750   0.9945   0.20748   0.20106  -0.0883   0.1427   1.0000
  18.850   0.9997   0.20969   0.20329  -0.0887   0.1432   1.0000
  19.500   0.9624   0.23922   0.23261  -0.1091   0.2284   1.0000
  19.250   0.9557   0.23441   0.22779  -0.1071   0.2307   1.0000
  19.350   0.9687   0.23886   0.23228  -0.1068   0.2292   1.0000
  19.450   0.9649   0.23922   0.23262  -0.1083   0.2288   1.0000
  19.750   0.9579   0.24047   0.23382  -0.1124   0.2214   1.0000
  19.500   0.9624   0.23924   0.23262  -0.1091   0.2284   1.0000
  19.600   0.9572   0.23920   0.23255  -0.1109   0.2266   1.0000
  19.700   0.9564   0.23987   0.23321  -0.1121   0.2231   1.0000
  20.000   0.9799   0.24728   0.24070  -0.1121   0.2141   1.0000
   0.000  -0.2112   0.04933   0.04134  -0.0160   1.0000   1.0000
  -0.250  -0.2344   0.04872   0.04099  -0.0134   1.0000   0.9897
  -0.500  -0.3917   0.04301   0.03593   0.0077   1.0000   0.8713
  -0.750  -0.3885   0.04329   0.03626   0.0000   1.0000   0.8243
  -1.000  -0.3873   0.04322   0.03631  -0.0070   1.0000   0.7835
  -1.250  -0.3833   0.04279   0.03596  -0.0154   1.0000   0.7359
  -1.500  -0.3735   0.04165   0.03479  -0.0265   1.0000   0.6655
  -1.750  -0.3642   0.04181   0.03220  -0.0379   1.0000   0.2220
  -2.000  -0.3849   0.04296   0.03289  -0.0385   1.0000   0.1644
  -2.250  -0.4040   0.04366   0.03340  -0.0399   1.0000   0.1442
  -2.500  -0.4229   0.04421   0.03392  -0.0414   1.0000   0.1317
  -2.750  -0.4430   0.04489   0.03474  -0.0427   1.0000   0.1225
  -3.000  -0.4631   0.04602   0.03586  -0.0439   1.0000   0.1164
  -3.250  -0.4844   0.04722   0.03734  -0.0447   1.0000   0.1123
  -3.500  -0.5059   0.04853   0.03905  -0.0454   1.0000   0.1087
  -3.750  -0.5275   0.05030   0.04120  -0.0459   1.0000   0.1073
  -4.000  -0.5494   0.05260   0.04396  -0.0461   1.0000   0.1084
  -4.250  -0.5707   0.05537   0.04722  -0.0461   1.0000   0.1105
  -4.500  -0.5904   0.05852   0.05074  -0.0459   1.0000   0.1130
  -4.750  -0.6076   0.06191   0.05422  -0.0460   1.0000   0.1150
  -5.000  -0.6294   0.06738   0.06099  -0.0430   1.0000   0.1265
  -6.000  -0.4863   0.11724   0.11247   0.0027   1.0000   0.3845
  -6.250  -0.4729   0.11922   0.11438   0.0003   1.0000   0.3720
  -6.500  -0.4949   0.12313   0.11833  -0.0005   1.0000   0.3660
  -6.750  -0.4742   0.12420   0.11931  -0.0032   1.0000   0.3520
  -7.000  -0.4583   0.12580   0.12084  -0.0053   1.0000   0.3398
  -7.250  -0.4582   0.12853   0.12353  -0.0070   1.0000   0.3307
  -7.200  -0.4798   0.12956   0.12461  -0.0064   1.0000   0.3334
  -7.500  -0.4668   0.13121   0.12620  -0.0088   1.0000   0.3194
  -7.250  -0.4582   0.12853   0.12353  -0.0070   1.0000   0.3307
  -7.350  -0.4512   0.12890   0.12387  -0.0078   1.0000   0.3245
  -7.450  -0.4575   0.13009   0.12506  -0.0085   1.0000   0.3211
  -7.750  -0.4451   0.13237   0.12727  -0.0105   1.0000   0.3079
  -8.000  -0.4490   0.13535   0.13023  -0.0120   1.0000   0.3000
  -8.250  -0.4718   0.13929   0.13419  -0.0141   1.0000   0.2864
  -8.500  -0.4313   0.13880   0.13357  -0.0151   1.0000   0.2774
  -8.750  -0.4350   0.14169   0.13643  -0.0167   1.0000   0.2681
  -8.500  -0.4313   0.13880   0.13357  -0.0151   1.0000   0.2774
  -8.600  -0.4650   0.14233   0.13716  -0.0166   1.0000   0.2705
  -8.700  -0.4391   0.14152   0.13627  -0.0166   1.0000   0.2686
  -9.000  -0.4288   0.14324   0.13793  -0.0181   1.0000   0.2585
  -9.250  -0.4213   0.14547   0.14010  -0.0192   1.0000   0.2505
  -9.500  -0.4524   0.15054   0.14524  -0.0218   1.0000   0.2390
  -9.750  -0.4115   0.14951   0.14406  -0.0216   1.0000   0.2335
 -10.000  -0.4179   0.15206   0.14661  -0.0232   1.0000   0.2257
 -10.250  -0.4105   0.15447   0.14895  -0.0240   1.0000   0.2209
 -10.500  -0.3994   0.15553   0.14996  -0.0248   1.0000   0.2140
 -10.750  -0.4266   0.16119   0.15565  -0.0272   1.0000   0.2074
 -11.000  -0.3932   0.16005   0.15438  -0.0268   1.0000   0.2034
 -11.250  -0.3907   0.16184   0.15614  -0.0279   1.0000   0.1963
 -11.500  -0.4139   0.16750   0.16181  -0.0301   1.0000   0.1917
 -11.750  -0.3825   0.16604   0.16024  -0.0296   1.0000   0.1880
 -12.000  -0.3777   0.16749   0.16164  -0.0305   1.0000   0.1822
 -12.250  -0.4034   0.17352   0.16772  -0.0330   1.0000   0.1767
 -12.500  -0.3823   0.17321   0.16730  -0.0329   1.0000   0.1751
 -12.750  -0.3664   0.17315   0.16716  -0.0331   1.0000   0.1700
 -13.000  -0.3667   0.17518   0.16916  -0.0343   1.0000   0.1649
 -13.250  -0.3890   0.18185   0.17586  -0.0366   1.0000   0.1607
 -13.500  -0.3660   0.18015   0.17406  -0.0365   1.0000   0.1594
 -13.750  -0.3532   0.18010   0.17395  -0.0369   1.0000   0.1554
 -14.000  -0.3504   0.18154   0.17535  -0.0381   1.0000   0.1510
 -14.250  -0.3757   0.18929   0.18311  -0.0410   1.0000   0.1453
 -14.500  -0.3545   0.18730   0.18103  -0.0412   1.0000   0.1445
 -14.750  -0.3395   0.18639   0.18004  -0.0418   1.0000   0.1421
 -15.000  -0.3321   0.18700   0.18058  -0.0430   1.0000   0.1378
 -15.250  -0.3317   0.18865   0.18221  -0.0451   1.0000   0.1333
 -15.500  -0.3533   0.19678   0.19033  -0.0483   1.0000   0.1302
 -15.750  -0.3291   0.19349   0.18693  -0.0497   1.0000   0.1295
 -16.000  -0.3100   0.19125   0.18458  -0.0517   1.0000   0.1283
 -16.250  -0.2964   0.19013   0.18336  -0.0540   1.0000   0.1260
 -16.500  -0.2908   0.19053   0.18366  -0.0554   1.0000   0.1230
 -16.750  -0.2928   0.19243   0.18549  -0.0561   1.0000   0.1192
 -17.000  -0.3066   0.19760   0.19063  -0.0571   1.0000   0.1160
 -17.250  -0.3149   0.20226   0.19520  -0.0568   1.0000   0.1148
 -17.500  -0.3074   0.20065   0.19349  -0.0548   1.0000   0.1135
 -17.750  -0.3078   0.20145   0.19423  -0.0531   1.0000   0.1105
 -18.000  -0.3135   0.20369   0.19641  -0.0519   1.0000   0.1072
 -18.250  -0.3219   0.20665   0.19934  -0.0510   1.0000   0.1041
 -18.500  -0.3354   0.21160   0.20428  -0.0507   1.0000   0.1016
 -18.750  -0.3516   0.21938   0.21201  -0.0502   1.0000   0.1001
 -19.000  -0.3473   0.21731   0.20986  -0.0475   1.0000   0.0992
 -19.250  -0.3498   0.21785   0.21034  -0.0451   1.0000   0.0974
 -19.500  -0.3560   0.21990   0.21235  -0.0432   1.0000   0.0944
 -19.750  -0.3641   0.22260   0.21501  -0.0416   1.0000   0.0917
 -20.000  -0.3738   0.22583   0.21823  -0.0402   1.0000   0.0892
