  
       XFOIL         Version 6.99
  
 Calculated polar for: E62  (5.62%)                                    
  
 1 1 Reynolds number fixed          Mach number fixed         
  
 xtrf =   1.000 (top)        1.000 (bottom)  
 Mach =   0.000     Re =     0.050 e 6     Ncrit =   9.000
  
   alpha    CL        CD       CDp       CM     Top_Xtr  Bot_Xtr
  ------ -------- --------- --------- -------- -------- --------
   0.000   0.3091   0.03005   0.01928  -0.1118   1.0000   0.1347
   0.250   0.3394   0.02943   0.01859  -0.1123   1.0000   0.1766
   0.500   0.3740   0.02617   0.01727  -0.1123   1.0000   1.0000
   0.750   0.3960   0.02690   0.01745  -0.1120   1.0000   1.0000
   1.000   0.4171   0.02768   0.01787  -0.1118   1.0000   1.0000
   1.250   0.4375   0.02850   0.01842  -0.1116   1.0000   1.0000
   1.500   0.4576   0.02937   0.01907  -0.1114   1.0000   1.0000
   1.750   0.4770   0.03030   0.01981  -0.1112   1.0000   1.0000
   2.000   0.4960   0.03128   0.02066  -0.1111   1.0000   1.0000
   2.250   0.5145   0.03232   0.02159  -0.1109   1.0000   1.0000
   2.500   0.5327   0.03342   0.02262  -0.1108   1.0000   1.0000
   2.750   0.5504   0.03460   0.02375  -0.1108   1.0000   1.0000
   3.000   0.5674   0.03585   0.02498  -0.1107   1.0000   1.0000
   3.250   0.6090   0.03759   0.02671  -0.1153   0.9863   1.0000
   3.500   0.6528   0.03911   0.02827  -0.1200   0.9674   1.0000
   3.750   0.6976   0.04043   0.02966  -0.1245   0.9493   1.0000
   4.000   0.7369   0.04153   0.03091  -0.1278   0.9301   1.0000
   4.250   0.7806   0.04248   0.03200  -0.1315   0.9108   1.0000
   4.500   0.8202   0.04328   0.03297  -0.1342   0.8900   1.0000
   4.750   0.8685   0.04375   0.03367  -0.1378   0.8693   1.0000
   5.000   0.9065   0.04417   0.03441  -0.1395   0.8460   1.0000
   5.250   0.9543   0.04404   0.03460  -0.1419   0.8229   1.0000
   5.500   1.0134   0.04295   0.03394  -0.1449   0.7992   1.0000
   5.750   1.0677   0.04129   0.03286  -0.1461   0.7721   1.0000
   6.000   1.1450   0.03707   0.02937  -0.1479   0.7434   1.0000
   6.250   1.2246   0.03160   0.02479  -0.1481   0.7002   1.0000
   6.500   1.2689   0.02781   0.02146  -0.1434   0.6280   1.0000
   6.750   1.2752   0.02658   0.01971  -0.1344   0.4974   1.0000
   7.000   1.2619   0.02873   0.02044  -0.1260   0.3318   1.0000
   7.250   1.2435   0.03289   0.02307  -0.1191   0.1936   1.0000
   7.500   1.2533   0.03771   0.02684  -0.1159   0.1160   1.0000
   7.750   1.3013   0.04166   0.03065  -0.1175   0.0894   1.0000
   8.000   1.3445   0.04564   0.03468  -0.1191   0.0781   1.0000
   8.250   1.3781   0.04977   0.03942  -0.1187   0.0753   1.0000
   8.500   1.4020   0.05421   0.04444  -0.1173   0.0744   1.0000
   8.750   1.4175   0.05885   0.04968  -0.1151   0.0746   1.0000
   9.000   1.4268   0.06368   0.05506  -0.1125   0.0756   1.0000
   9.250   1.4323   0.06872   0.06058  -0.1098   0.0768   1.0000
   9.500   1.4372   0.07419   0.06640  -0.1075   0.0782   1.0000
   9.750   1.4400   0.07947   0.07207  -0.1051   0.0797   1.0000
  10.000   1.4044   0.08301   0.07642  -0.0990   0.0825   1.0000
  10.250   1.3774   0.08751   0.08130  -0.0950   0.0843   1.0000
  10.500   1.3508   0.09205   0.08611  -0.0919   0.0856   1.0000
  10.750   1.3246   0.09713   0.09140  -0.0903   0.0868   1.0000
  11.000   1.2990   0.10279   0.09724  -0.0902   0.0878   1.0000
  11.250   1.2760   0.10915   0.10372  -0.0915   0.0891   1.0000
  11.500   1.2785   0.11562   0.11028  -0.0919   0.0926   1.0000
  11.750   1.2370   0.12382   0.11860  -0.0976   0.0933   1.0000
  12.000   1.1851   0.13901   0.13376  -0.1115   0.0966   1.0000
  12.250   1.1756   0.14867   0.14336  -0.1170   0.1024   1.0000
  12.500   0.9757   0.14891   0.14404  -0.1054   0.1036   1.0000
  12.750   0.9452   0.16084   0.15590  -0.1143   0.1267   1.0000
  13.000   0.9064   0.17599   0.17106  -0.1277   0.2315   1.0000
  13.250   0.9178   0.18129   0.17640  -0.1281   0.2276   1.0000
  13.500   0.9144   0.18531   0.18041  -0.1298   0.2250   1.0000
  13.750   0.9071   0.18782   0.18293  -0.1317   0.2176   1.0000
  14.000   0.9163   0.19285   0.18799  -0.1321   0.2112   1.0000
  14.250   0.9091   0.19539   0.19053  -0.1342   0.2057   1.0000
  14.500   0.9250   0.20144   0.19661  -0.1339   0.1982   1.0000
  14.750   0.9131   0.20301   0.19817  -0.1366   0.1931   1.0000
  15.000   0.9250   0.20823   0.20344  -0.1367   0.1865   1.0000
  15.250   0.9245   0.21225   0.20745  -0.1385   0.1838   1.0000
  15.500   0.9196   0.21469   0.20991  -0.1406   0.1779   1.0000
  15.750   0.9350   0.22070   0.21597  -0.1404   0.1724   1.0000
  16.000   0.9295   0.22358   0.21883  -0.1427   0.1698   1.0000
  16.250   0.9272   0.22643   0.22175  -0.1447   0.1641   1.0000
  16.500   0.9411   0.23234   0.22772  -0.1445   0.1589   1.0000
  16.750   0.9379   0.23567   0.23104  -0.1468   0.1565   1.0000
  17.000   0.9353   0.23839   0.23376  -0.1489   0.1512   1.0000
  17.250   0.9468   0.24383   0.23926  -0.1489   0.1458   1.0000
  17.500   0.9478   0.24805   0.24348  -0.1507   0.1435   1.0000
  17.750   0.9440   0.25047   0.24591  -0.1531   0.1380   1.0000
  18.000   0.9535   0.25546   0.25095  -0.1533   0.1327   1.0000
  18.250   0.9564   0.26021   0.25570  -0.1548   0.1302   1.0000
  18.500   0.9532   0.26282   0.25833  -0.1574   0.1262   1.0000
  18.750   0.9585   0.26710   0.26264  -0.1582   0.1208   1.0000
  19.000   0.9744   0.27559   0.27117  -0.1576   0.1178   1.0000
  19.250   0.9664   0.27657   0.27215  -0.1608   0.1167   1.0000
  19.500   0.9648   0.27971   0.27531  -0.1631   0.1126   1.0000
  19.750   0.9690   0.28399   0.27962  -0.1643   0.1085   1.0000
  20.000   0.9889   0.29426   0.28999  -0.1630   0.1049   1.0000
   0.000   0.3091   0.03005   0.01928  -0.1118   1.0000   0.1347
  -0.250   0.2784   0.03082   0.02037  -0.1114   1.0000   0.1235
  -0.500   0.2450   0.03185   0.02181  -0.1103   1.0000   0.1196
  -0.750   0.2079   0.03333   0.02381  -0.1084   1.0000   0.1204
  -1.000   0.1673   0.03521   0.02626  -0.1054   1.0000   0.1220
  -1.250   0.1265   0.03762   0.02909  -0.1020   1.0000   0.1276
  -1.250   0.0280   0.04321   0.03649  -0.0812   1.0000   0.2900
  -1.450   0.0551   0.04279   0.03534  -0.0917   1.0000   0.1996
  -2.250  -0.2124   0.05895   0.05335  -0.0347   1.0000   0.3353
  -2.000  -0.1981   0.05632   0.05077  -0.0338   1.0000   0.3749
  -2.100  -0.1983   0.05756   0.05195  -0.0361   1.0000   0.3684
  -2.500  -0.2197   0.06184   0.05621  -0.0381   1.0000   0.3133
  -2.750  -0.2473   0.06444   0.05886  -0.0333   1.0000   0.2755
  -3.000  -0.2571   0.06737   0.06175  -0.0352   1.0000   0.2575
  -3.250  -0.2807   0.07018   0.06459  -0.0307   1.0000   0.2318
  -3.000  -0.2571   0.06737   0.06175  -0.0352   1.0000   0.2575
  -3.100  -0.2683   0.06845   0.06285  -0.0327   1.0000   0.2447
  -3.200  -0.2659   0.06989   0.06423  -0.0360   1.0000   0.2425
  -3.500  -0.2920   0.07313   0.06751  -0.0310   1.0000   0.2157
  -3.750  -0.3055   0.07610   0.07048  -0.0298   1.0000   0.2012
  -4.000  -0.3197   0.07906   0.07343  -0.0276   1.0000   0.1872
  -4.250  -0.3357   0.08181   0.07618  -0.0228   1.0000   0.1759
  -4.500  -0.3341   0.08575   0.08004  -0.0295   1.0000   0.1715
  -5.000  -0.3520   0.09181   0.08608  -0.0269   1.0000   0.1569
  -5.250  -0.3615   0.09242   0.08666  -0.0178   1.0000   0.1499
  -5.500  -0.3656   0.09592   0.09012  -0.0212   1.0000   0.1441
  -5.750  -0.3675   0.09863   0.09275  -0.0203   1.0000   0.1417
  -6.000  -0.3643   0.09949   0.09351  -0.0177   1.0000   0.1371
  -5.750  -0.3675   0.09863   0.09275  -0.0203   1.0000   0.1417
  -5.850  -0.3661   0.09869   0.09277  -0.0184   1.0000   0.1402
  -5.950  -0.3648   0.09914   0.09318  -0.0178   1.0000   0.1382
  -6.250  -0.3654   0.10189   0.09585  -0.0188   1.0000   0.1323
  -6.500  -0.3754   0.10779   0.10173  -0.0233   1.0000   0.1284
  -6.750  -0.3668   0.10761   0.10142  -0.0209   1.0000   0.1273
  -7.000  -0.3548   0.10779   0.10146  -0.0217   1.0000   0.1249
  -7.250  -0.3481   0.10900   0.10257  -0.0232   1.0000   0.1217
  -7.500  -0.3499   0.11169   0.10519  -0.0248   1.0000   0.1175
  -7.750  -0.3667   0.11832   0.11182  -0.0260   1.0000   0.1140
  -8.000  -0.3537   0.11792   0.11128  -0.0270   1.0000   0.1134
  -8.250  -0.3443   0.11796   0.11120  -0.0274   1.0000   0.1117
  -8.500  -0.3415   0.11937   0.11252  -0.0278   1.0000   0.1085
  -8.750  -0.3435   0.12174   0.11483  -0.0284   1.0000   0.1051
  -9.000  -0.3717   0.13200   0.12516  -0.0305   1.0000   0.1002
  -9.250  -0.3621   0.13148   0.12451  -0.0303   1.0000   0.0999
  -9.500  -0.3548   0.13122   0.12414  -0.0298   1.0000   0.0991
  -9.750  -0.3514   0.13190   0.12474  -0.0292   1.0000   0.0970
 -10.000  -0.3526   0.13384   0.12667  -0.0290   1.0000   0.0942
 -10.250  -0.3562   0.13645   0.12923  -0.0291   1.0000   0.0914
 -10.500  -0.3630   0.14003   0.13279  -0.0295   1.0000   0.0885
 -10.750  -0.3825   0.14925   0.14203  -0.0311   1.0000   0.0860
 -11.000  -0.3773   0.14887   0.14156  -0.0300   1.0000   0.0856
 -11.250  -0.3740   0.14880   0.14140  -0.0289   1.0000   0.0847
 -11.500  -0.3742   0.14991   0.14246  -0.0280   1.0000   0.0825
 -11.750  -0.3776   0.15218   0.14468  -0.0275   1.0000   0.0797
 -12.000  -0.3824   0.15494   0.14742  -0.0273   1.0000   0.0772
 -12.250  -0.3898   0.15884   0.15130  -0.0275   1.0000   0.0744
 -12.500  -0.4082   0.16877   0.16124  -0.0288   1.0000   0.0721
 -12.750  -0.4050   0.16824   0.16065  -0.0274   1.0000   0.0718
 -13.000  -0.4044   0.16840   0.16074  -0.0261   1.0000   0.0711
 -13.250  -0.4063   0.16951   0.16181  -0.0250   1.0000   0.0699
 -13.500  -0.4103   0.17159   0.16386  -0.0241   1.0000   0.0683
 -13.750  -0.4152   0.17411   0.16635  -0.0234   1.0000   0.0664
 -14.000  -0.4206   0.17687   0.16909  -0.0227   1.0000   0.0645
 -14.250  -0.4265   0.17979   0.17200  -0.0221   1.0000   0.0628
 -14.500  -0.4333   0.18331   0.17555  -0.0218   1.0000   0.0611
 -14.750  -0.4464   0.19114   0.18341  -0.0224   1.0000   0.0591
 -15.000  -0.4575   0.19835   0.19059  -0.0222   1.0000   0.0584
 -15.250  -0.4576   0.19795   0.19014  -0.0208   1.0000   0.0582
 -15.500  -0.4591   0.19789   0.19004  -0.0192   1.0000   0.0578
 -15.750  -0.4625   0.19860   0.19071  -0.0177   1.0000   0.0572
 -16.000  -0.4673   0.20007   0.19215  -0.0163   1.0000   0.0561
 -16.250  -0.4731   0.20231   0.19437  -0.0152   1.0000   0.0548
 -16.500  -0.4793   0.20486   0.19690  -0.0141   1.0000   0.0535
 -16.750  -0.4857   0.20757   0.19959  -0.0130   1.0000   0.0520
 -17.000  -0.4923   0.21038   0.20239  -0.0120   1.0000   0.0506
 -17.250  -0.4991   0.21329   0.20529  -0.0110   1.0000   0.0493
 -17.500  -0.5061   0.21645   0.20845  -0.0101   1.0000   0.0481
 -17.750  -0.5136   0.22006   0.21205  -0.0093   1.0000   0.0470
 -18.000  -0.5241   0.22725   0.21926  -0.0093   1.0000   0.0457
 -18.250  -0.5380   0.23856   0.23061  -0.0092   1.0000   0.0449
 -18.500  -0.5402   0.23732   0.22933  -0.0074   1.0000   0.0448
 -18.750  -0.5434   0.23636   0.22833  -0.0054   1.0000   0.0445
 -19.000  -0.5477   0.23572   0.22766  -0.0034   1.0000   0.0440
 -19.250  -0.5538   0.23674   0.22866  -0.0016   1.0000   0.0433
 -19.500  -0.5606   0.23870   0.23061   0.0000   1.0000   0.0425
 -19.750  -0.5676   0.24104   0.23293   0.0015   1.0000   0.0414
 -20.000  -0.5748   0.24361   0.23550   0.0030   1.0000   0.0405
