  
       XFOIL         Version 6.99
  
 Calculated polar for: Smoothed ATR airfoil coordinates obtained  using
  
 1 1 Reynolds number fixed          Mach number fixed         
  
 xtrf =   1.000 (top)        1.000 (bottom)  
 Mach =   0.000     Re =     0.050 e 6     Ncrit =   9.000
  
   alpha    CL        CD       CDp       CM     Top_Xtr  Bot_Xtr
  ------ -------- --------- --------- -------- -------- --------
   0.000   0.4471   0.02418   0.01435  -0.0649   0.6206   1.0000
   0.250   0.4652   0.02447   0.01445  -0.0634   0.6037   1.0000
   0.500   0.4836   0.02482   0.01462  -0.0620   0.5889   1.0000
   0.750   0.5001   0.02536   0.01508  -0.0606   0.5748   1.0000
   1.000   0.5173   0.02594   0.01555  -0.0592   0.5628   1.0000
   1.250   0.5372   0.02636   0.01577  -0.0578   0.5525   1.0000
   1.500   0.5515   0.02716   0.01660  -0.0563   0.5413   1.0000
   1.750   0.5708   0.02772   0.01700  -0.0549   0.5326   1.0000
   2.000   0.5846   0.02866   0.01797  -0.0533   0.5233   1.0000
   2.250   0.6055   0.02923   0.01835  -0.0520   0.5163   1.0000
   2.500   0.6150   0.03048   0.01974  -0.0501   0.5077   1.0000
   2.750   0.6346   0.03114   0.02027  -0.0487   0.5008   1.0000
   3.000   0.6443   0.03249   0.02169  -0.0467   0.4938   1.0000
   3.250   0.6561   0.03372   0.02295  -0.0449   0.4874   1.0000
   3.500   0.6781   0.03443   0.02353  -0.0437   0.4822   1.0000
   3.750   0.6768   0.03658   0.02586  -0.0409   0.4763   1.0000
   4.000   0.6821   0.03830   0.02764  -0.0386   0.4705   1.0000
   4.250   0.7062   0.03894   0.02815  -0.0376   0.4653   1.0000
   4.500   0.6966   0.04181   0.03118  -0.0344   0.4610   1.0000
   4.750   0.6705   0.04583   0.03536  -0.0305   0.4575   1.0000
   5.000   0.6330   0.05078   0.04038  -0.0266   0.4549   1.0000
   5.250   0.5366   0.06026   0.04989  -0.0222   0.4575   1.0000
   5.500   0.5029   0.06592   0.05551  -0.0216   0.4592   1.0000
   5.750   0.4974   0.06988   0.05944  -0.0216   0.4619   1.0000
   6.000   0.5088   0.07301   0.06255  -0.0220   0.4640   1.0000
   6.000   0.4669   0.07657   0.06613  -0.0233   0.4804   1.0000
   6.100   0.4778   0.07767   0.06724  -0.0236   0.4814   1.0000
   7.000   0.3626   0.09500   0.08464  -0.0282   0.5932   1.0000
   7.250   0.3953   0.09926   0.08887  -0.0299   0.5875   1.0000
   7.500   0.3894   0.09974   0.08933  -0.0280   0.5739   1.0000
   7.750   0.3956   0.10195   0.09152  -0.0276   0.5646   1.0000
   8.000   0.4175   0.10478   0.09434  -0.0280   0.5545   1.0000
   8.250   0.4163   0.10657   0.09610  -0.0272   0.5456   1.0000
   8.500   0.4393   0.10960   0.09912  -0.0278   0.5365   1.0000
   8.750   0.4371   0.11123   0.10075  -0.0270   0.5262   1.0000
   9.000   0.4677   0.11505   0.10457  -0.0279   0.5177   1.0000
   9.250   0.4591   0.11603   0.10554  -0.0269   0.5064   1.0000
   9.500   0.4892   0.12016   0.10968  -0.0279   0.5000   1.0000
   9.750   0.4787   0.12101   0.11052  -0.0269   0.4893   1.0000
  10.000   0.5109   0.12541   0.11496  -0.0279   0.4824   1.0000
  10.250   0.4995   0.12602   0.11555  -0.0271   0.4710   1.0000
  10.500   0.5340   0.13095   0.12052  -0.0282   0.4648   1.0000
  10.750   0.5176   0.13113   0.12068  -0.0274   0.4544   1.0000
  11.000   0.5461   0.13545   0.12505  -0.0282   0.4481   1.0000
  11.250   0.5354   0.13634   0.12594  -0.0279   0.4386   1.0000
  11.500   0.5616   0.14034   0.12997  -0.0285   0.4311   1.0000
  11.750   0.5540   0.14167   0.13131  -0.0286   0.4228   1.0000
  12.000   0.5709   0.14480   0.13447  -0.0290   0.4152   1.0000
  12.250   0.5902   0.14940   0.13911  -0.0297   0.4110   1.0000
  12.500   0.5820   0.14964   0.13936  -0.0298   0.4003   1.0000
  12.750   0.6157   0.15549   0.14528  -0.0305   0.3948   1.0000
  13.000   0.5969   0.15500   0.14478  -0.0310   0.3867   1.0000
  13.250   0.6136   0.15833   0.14815  -0.0315   0.3799   1.0000
  13.500   0.6397   0.16434   0.15423  -0.0323   0.3761   1.0000
  13.750   0.6227   0.16309   0.15298  -0.0329   0.3664   1.0000
  14.000   0.6466   0.16769   0.15764  -0.0334   0.3605   1.0000
  14.250   0.6471   0.17012   0.16010  -0.0344   0.3566   1.0000
  14.500   0.6478   0.17136   0.16137  -0.0353   0.3481   1.0000
  14.750   0.6714   0.17621   0.16630  -0.0357   0.3427   1.0000
  15.000   0.6687   0.17796   0.16806  -0.0370   0.3382   1.0000
  15.250   0.6727   0.17963   0.16977  -0.0380   0.3303   1.0000
  15.500   0.6935   0.18431   0.17453  -0.0385   0.3254   1.0000
  15.750   0.6990   0.18759   0.17783  -0.0398   0.3221   1.0000
  16.000   0.6962   0.18790   0.17817  -0.0412   0.3140   1.0000
  16.250   0.7146   0.19218   0.18254  -0.0417   0.3086   1.0000
  16.500   0.7333   0.19845   0.18887  -0.0426   0.3058   1.0000
  16.750   0.7199   0.19636   0.18677  -0.0447   0.2990   1.0000
  17.000   0.7337   0.19975   0.19023  -0.0454   0.2928   1.0000
  17.000   0.7337   0.19975   0.19023  -0.0454   0.2928   1.0000
  17.100   0.7438   0.20234   0.19286  -0.0455   0.2910   1.0000
  17.200   0.7566   0.20621   0.19680  -0.0456   0.2898   1.0000
  17.500   0.7451   0.20519   0.19576  -0.0484   0.2847   1.0000
  17.750   0.7537   0.20762   0.19825  -0.0496   0.2780   1.0000
  18.000   0.7774   0.21430   0.20504  -0.0498   0.2735   1.0000
  18.250   0.7738   0.21504   0.20578  -0.0520   0.2707   1.0000
  18.500   0.7755   0.21592   0.20670  -0.0539   0.2638   1.0000
  18.750   0.7920   0.22040   0.21128  -0.0545   0.2585   1.0000
  19.000   0.8068   0.22660   0.21755  -0.0555   0.2559   1.0000
  19.250   0.7986   0.22460   0.21554  -0.0583   0.2503   1.0000
  19.500   0.8102   0.22785   0.21887  -0.0594   0.2441   1.0000
  19.750   0.8392   0.23881   0.22996  -0.0592   0.2406   1.0000
  20.000   0.8228   0.23361   0.22472  -0.0629   0.2367   1.0000
   0.000   0.4471   0.02418   0.01435  -0.0649   0.6206   1.0000
  -0.250   0.4298   0.02388   0.01425  -0.0664   0.6401   1.0000
  -0.500   0.4116   0.02371   0.01434  -0.0680   0.6617   1.0000
  -0.750   0.3936   0.02365   0.01455  -0.0698   0.6875   1.0000
  -1.000   0.3769   0.02367   0.01487  -0.0719   0.7185   1.0000
  -1.250   0.3602   0.02389   0.01541  -0.0744   0.7545   1.0000
  -1.500   0.3419   0.02437   0.01619  -0.0769   0.7967   1.0000
  -1.750   0.3136   0.02524   0.01733  -0.0778   0.8409   1.0000
  -2.000   0.2661   0.02645   0.01879  -0.0750   0.8854   1.0000
  -2.250  -0.1732   0.02669   0.01943  -0.0205   0.9030   0.5563
  -2.500  -0.2123   0.02914   0.01985  -0.0200   0.9243   0.3280
  -2.750  -0.2843   0.03063   0.02087  -0.0126   0.9463   0.2648
  -3.000  -0.3473   0.03180   0.02195  -0.0065   0.9690   0.2334
  -3.250  -0.4154   0.03294   0.02308   0.0010   0.9900   0.2097
  -3.250  -0.4154   0.03294   0.02308   0.0010   0.9900   0.2097
  -3.350  -0.4419   0.03346   0.02373   0.0040   0.9981   0.2024
  -3.450  -0.4534   0.03383   0.02422   0.0044   1.0000   0.1980
  -3.750  -0.4722   0.03528   0.02559   0.0032   1.0000   0.1887
  -4.000  -0.4875   0.03643   0.02720   0.0017   1.0000   0.1826
  -4.250  -0.5024   0.03770   0.02862   0.0003   1.0000   0.1763
  -4.500  -0.5171   0.03959   0.03048  -0.0009   1.0000   0.1715
  -4.750  -0.5291   0.04139   0.03280  -0.0028   1.0000   0.1688
  -5.000  -0.5386   0.04350   0.03533  -0.0047   1.0000   0.1661
  -5.250  -0.5465   0.04595   0.03814  -0.0067   1.0000   0.1656
  -5.500  -0.5518   0.04871   0.04123  -0.0087   1.0000   0.1663
  -5.750  -0.5542   0.05162   0.04444  -0.0110   1.0000   0.1670
  -6.000  -0.5548   0.05467   0.04770  -0.0132   1.0000   0.1684
  -6.250  -0.5559   0.05785   0.05100  -0.0154   1.0000   0.1703
  -6.500  -0.5329   0.06289   0.05658  -0.0175   1.0000   0.1850
  -6.750  -0.5306   0.06864   0.06243  -0.0184   1.0000   0.2064
  -7.000  -0.2692   0.08525   0.07905  -0.0006   1.0000   0.4727
  -7.250  -0.2592   0.08649   0.08016  -0.0036   1.0000   0.4503
  -7.500  -0.2631   0.08872   0.08230  -0.0057   1.0000   0.4289
  -7.750  -0.2677   0.09121   0.08472  -0.0073   1.0000   0.4112
  -8.000  -0.2726   0.09378   0.08722  -0.0088   1.0000   0.3934
  -8.250  -0.2782   0.09634   0.08970  -0.0101   1.0000   0.3756
  -8.500  -0.2840   0.09895   0.09224  -0.0114   1.0000   0.3571
  -8.750  -0.2892   0.10168   0.09489  -0.0124   1.0000   0.3418
  -9.000  -0.3089   0.10571   0.09890  -0.0133   1.0000   0.3298
  -9.250  -0.3236   0.10898   0.10215  -0.0144   1.0000   0.3146
  -9.500  -0.3045   0.11001   0.10305  -0.0143   1.0000   0.3023
  -9.750  -0.3110   0.11325   0.10622  -0.0146   1.0000   0.2917
 -10.000  -0.3469   0.11888   0.11187  -0.0162   1.0000   0.2781
 -10.250  -0.3174   0.11861   0.11146  -0.0149   1.0000   0.2681
 -10.500  -0.3473   0.12429   0.11715  -0.0160   1.0000   0.2598
 -10.750  -0.3267   0.12458   0.11732  -0.0146   1.0000   0.2501
 -11.000  -0.3685   0.13190   0.12468  -0.0163   1.0000   0.2425
 -11.250  -0.3358   0.13078   0.12343  -0.0138   1.0000   0.2359
 -11.500  -0.3540   0.13481   0.12745  -0.0143   1.0000   0.2271
 -11.750  -0.3553   0.13813   0.13070  -0.0134   1.0000   0.2224
 -12.000  -0.3516   0.13975   0.13227  -0.0124   1.0000   0.2139
 -12.250  -0.3907   0.14775   0.14029  -0.0141   1.0000   0.2067
 -12.500  -0.3638   0.14629   0.13872  -0.0111   1.0000   0.2023
 -12.750  -0.3693   0.14895   0.14136  -0.0104   1.0000   0.1951
 -13.000  -0.4086   0.15751   0.14997  -0.0121   1.0000   0.1896
 -13.250  -0.3894   0.15694   0.14929  -0.0093   1.0000   0.1874
 -13.500  -0.3845   0.15795   0.15024  -0.0076   1.0000   0.1814
 -13.750  -0.3963   0.16153   0.15381  -0.0072   1.0000   0.1759
 -14.000  -0.4298   0.17064   0.16293  -0.0082   1.0000   0.1718
 -14.250  -0.4088   0.16818   0.16038  -0.0051   1.0000   0.1691
 -14.500  -0.4106   0.16995   0.16211  -0.0035   1.0000   0.1633
 -14.750  -0.4253   0.17404   0.16620  -0.0033   1.0000   0.1580
 -15.000  -0.4537   0.18316   0.17532  -0.0038   1.0000   0.1549
 -15.250  -0.4377   0.18054   0.17263  -0.0007   1.0000   0.1530
 -15.500  -0.4390   0.18192   0.17397   0.0012   1.0000   0.1486
 -15.750  -0.4479   0.18492   0.17696   0.0022   1.0000   0.1443
 -16.000  -0.4645   0.18995   0.18198   0.0023   1.0000   0.1408
 -16.250  -0.4871   0.19863   0.19066   0.0024   1.0000   0.1388
 -16.500  -0.4750   0.19562   0.18759   0.0056   1.0000   0.1371
 -16.750  -0.4771   0.19669   0.18862   0.0078   1.0000   0.1333
 -17.000  -0.4858   0.19951   0.19143   0.0090   1.0000   0.1290
 -17.250  -0.5006   0.20417   0.19609   0.0094   1.0000   0.1256
 -17.500  -0.5246   0.21403   0.20595   0.0092   1.0000   0.1235
 -17.750  -0.5160   0.21086   0.20271   0.0125   1.0000   0.1224
 -18.000  -0.5177   0.21131   0.20314   0.0150   1.0000   0.1195
 -18.250  -0.5253   0.21375   0.20556   0.0166   1.0000   0.1163
 -18.500  -0.5350   0.21681   0.20861   0.0179   1.0000   0.1136
 -18.750  -0.5485   0.22151   0.21331   0.0185   1.0000   0.1110
 -19.000  -0.5737   0.23317   0.22497   0.0180   1.0000   0.1093
 -19.250  -0.5676   0.22949   0.22124   0.0214   1.0000   0.1087
 -19.500  -0.5683   0.22870   0.22041   0.0243   1.0000   0.1067
 -19.750  -0.5750   0.23064   0.22235   0.0263   1.0000   0.1034
 -20.000  -0.5843   0.23347   0.22517   0.0278   1.0000   0.1006
