  
       XFOIL         Version 6.99
  
 Calculated polar for: SG6040                                          
  
 1 1 Reynolds number fixed          Mach number fixed         
  
 xtrf =   1.000 (top)        1.000 (bottom)  
 Mach =   0.000     Re =     0.050 e 6     Ncrit =   9.000
  
   alpha    CL        CD       CDp       CM     Top_Xtr  Bot_Xtr
  ------ -------- --------- --------- -------- -------- --------
   0.000   0.0868   0.04471   0.03531  -0.0432   0.9127   0.9959
   0.250   0.1087   0.04496   0.03550  -0.0449   0.9022   1.0000
   0.500   0.1272   0.04532   0.03579  -0.0457   0.8929   1.0000
   0.750   0.1335   0.04556   0.03600  -0.0445   0.8829   1.0000
   1.000   0.1406   0.04589   0.03629  -0.0433   0.8733   1.0000
   1.250   0.1553   0.04627   0.03662  -0.0433   0.8640   1.0000
   1.500   0.1497   0.04653   0.03687  -0.0402   0.8549   1.0000
   1.750   0.1678   0.04700   0.03728  -0.0406   0.8461   1.0000
   2.000   0.1508   0.04713   0.03741  -0.0358   0.8379   1.0000
   2.250   0.1653   0.04755   0.03779  -0.0355   0.8292   1.0000
   2.500   0.1458   0.04759   0.03782  -0.0305   0.8220   1.0000
   2.750   0.1544   0.04807   0.03825  -0.0297   0.8142   1.0000
   3.000   0.1647   0.04878   0.03891  -0.0293   0.8054   1.0000
   3.250   0.1929   0.04982   0.03989  -0.0314   0.7962   1.0000
   3.500   0.2064   0.05087   0.04090  -0.0318   0.7874   1.0000
   3.750   0.2514   0.05222   0.04221  -0.0358   0.7769   1.0000
   4.000   0.2523   0.05337   0.04334  -0.0348   0.7692   1.0000
   4.250   0.2899   0.05473   0.04467  -0.0377   0.7584   1.0000
   4.500   0.2981   0.05613   0.04605  -0.0376   0.7506   1.0000
   4.750   0.3291   0.05758   0.04749  -0.0396   0.7401   1.0000
   5.000   0.3429   0.05912   0.04902  -0.0400   0.7320   1.0000
   5.250   0.3665   0.06064   0.05055  -0.0412   0.7215   1.0000
   5.500   0.4096   0.06201   0.05193  -0.0439   0.7095   1.0000
   5.750   0.4028   0.06392   0.05385  -0.0425   0.7025   1.0000
   6.000   0.4332   0.06535   0.05530  -0.0439   0.6898   1.0000
   6.250   0.4510   0.06701   0.05699  -0.0444   0.6795   1.0000
   6.500   0.4635   0.06875   0.05876  -0.0443   0.6679   1.0000
   6.750   0.4894   0.07031   0.06037  -0.0452   0.6554   1.0000
   7.000   0.5212   0.07157   0.06169  -0.0462   0.6410   1.0000
   7.250   0.5394   0.07316   0.06334  -0.0464   0.6281   1.0000
   7.500   0.5452   0.07520   0.06544  -0.0459   0.6154   1.0000
   7.750   0.5640   0.07681   0.06711  -0.0459   0.6010   1.0000
   8.000   0.5856   0.07826   0.06864  -0.0460   0.5854   1.0000
   8.250   0.6073   0.07970   0.07017  -0.0460   0.5697   1.0000
   8.500   0.6291   0.08104   0.07160  -0.0459   0.5536   1.0000
   8.750   0.6499   0.08238   0.07304  -0.0457   0.5371   1.0000
   9.000   0.6700   0.08369   0.07444  -0.0453   0.5202   1.0000
   9.250   0.6899   0.08491   0.07578  -0.0448   0.5026   1.0000
   9.500   0.7095   0.08613   0.07711  -0.0443   0.4853   1.0000
   9.750   0.7313   0.08703   0.07812  -0.0436   0.4672   1.0000
  10.000   0.7589   0.08719   0.07843  -0.0426   0.4486   1.0000
  10.250   0.7952   0.08619   0.07760  -0.0411   0.4301   1.0000
  10.500   0.8574   0.08148   0.07314  -0.0384   0.4116   1.0000
  10.750   1.1701   0.04547   0.03762  -0.0336   0.3643   1.0000
  11.000   0.8595   0.08661   0.07842  -0.0367   0.3741   1.0000
  11.250   1.1977   0.04556   0.03740  -0.0282   0.3044   1.0000
  11.500   1.2099   0.04646   0.03807  -0.0259   0.2777   1.0000
  11.750   1.2322   0.04729   0.03853  -0.0246   0.2509   1.0000
  12.000   1.2351   0.04946   0.04070  -0.0225   0.2336   1.0000
  12.250   1.2435   0.05163   0.04284  -0.0209   0.2175   1.0000
  12.500   1.2577   0.05388   0.04503  -0.0198   0.2028   1.0000
  12.750   1.2775   0.05616   0.04723  -0.0193   0.1892   1.0000
  13.000   1.2599   0.05973   0.05116  -0.0167   0.1843   1.0000
  13.250   1.2814   0.06219   0.05355  -0.0164   0.1736   1.0000
  13.500   1.2568   0.06639   0.05812  -0.0142   0.1711   1.0000
  13.750   1.2333   0.07106   0.06308  -0.0128   0.1686   1.0000
  14.000   1.2639   0.07330   0.06523  -0.0127   0.1597   1.0000
  14.250   1.2303   0.07888   0.07112  -0.0118   0.1594   1.0000
  14.500   1.1910   0.08569   0.07818  -0.0122   0.1597   1.0000
  14.750   1.1489   0.09390   0.08661  -0.0140   0.1604   1.0000
  14.750   1.1489   0.09390   0.08661  -0.0140   0.1604   1.0000
  15.250   0.8281   0.16926   0.16177  -0.0573   0.2202   1.0000
  15.250   0.8281   0.16926   0.16177  -0.0573   0.2202   1.0000
  16.000   0.7763   0.19197   0.18441  -0.0743   0.2906   1.0000
  16.250   0.8113   0.19971   0.19226  -0.0739   0.2828   1.0000
  16.500   0.7925   0.19932   0.19181  -0.0772   0.2785   1.0000
  16.750   0.8047   0.20284   0.19537  -0.0782   0.2700   1.0000
  17.000   0.8152   0.20743   0.19999  -0.0796   0.2656   1.0000
  17.250   0.8150   0.20901   0.20156  -0.0817   0.2569   1.0000
  17.500   0.8471   0.21756   0.21024  -0.0813   0.2516   1.0000
  17.750   0.8294   0.21589   0.20847  -0.0851   0.2465   1.0000
  18.000   0.8439   0.21975   0.21238  -0.0859   0.2385   1.0000
  18.250   0.8538   0.22430   0.21695  -0.0874   0.2348   1.0000
  18.500   0.8522   0.22532   0.21795  -0.0901   0.2278   1.0000
  18.750   0.8729   0.23103   0.22375  -0.0902   0.2219   1.0000
  19.000   0.8718   0.23290   0.22559  -0.0931   0.2183   1.0000
  19.250   0.8771   0.23496   0.22766  -0.0951   0.2104   1.0000
  19.500   0.9044   0.24365   0.23645  -0.0945   0.2058   1.0000
  19.750   0.8939   0.24213   0.23485  -0.0986   0.2027   1.0000
  20.000   0.8995   0.24430   0.23704  -0.1006   0.1961   1.0000
   0.000   0.0868   0.04471   0.03531  -0.0432   0.9127   0.9959
  -0.250   0.0197   0.04418   0.03493  -0.0334   0.9229   0.9855
  -0.500  -0.0462   0.04366   0.03457  -0.0239   0.9339   0.9740
  -0.750  -0.1136   0.04313   0.03424  -0.0142   0.9448   0.9606
  -1.000  -0.2156   0.04204   0.03346   0.0012   0.9575   0.9428
  -1.250  -0.3892   0.03815   0.03014   0.0264   0.9755   0.9021
  -1.500  -0.4487   0.03638   0.02863   0.0307   0.9888   0.8667
  -1.750  -0.4817   0.03521   0.02764   0.0306   1.0000   0.8341
  -2.000  -0.4884   0.03514   0.02768   0.0264   1.0000   0.8075
  -2.250  -0.4928   0.03490   0.02752   0.0211   1.0000   0.7817
  -2.500  -0.4980   0.03464   0.02737   0.0164   1.0000   0.7527
  -2.750  -0.5023   0.03417   0.02699   0.0109   1.0000   0.7235
  -3.000  -0.5057   0.03343   0.02628   0.0048   1.0000   0.6942
  -3.250  -0.5106   0.03251   0.02544  -0.0009   1.0000   0.6555
  -3.500  -0.5150   0.03122   0.02416  -0.0073   1.0000   0.6097
  -3.750  -0.5205   0.02973   0.02256  -0.0136   1.0000   0.5402
  -4.000  -0.5288   0.02884   0.02105  -0.0189   1.0000   0.4446
  -4.250  -0.5422   0.02939   0.02079  -0.0216   1.0000   0.3736
  -4.500  -0.5588   0.03034   0.02137  -0.0231   1.0000   0.3263
  -4.750  -0.5756   0.03133   0.02207  -0.0244   1.0000   0.2906
  -5.000  -0.5928   0.03239   0.02299  -0.0256   1.0000   0.2589
  -5.250  -0.6101   0.03360   0.02412  -0.0268   1.0000   0.2304
  -5.500  -0.6267   0.03495   0.02520  -0.0281   1.0000   0.2049
  -5.750  -0.6439   0.03647   0.02691  -0.0291   1.0000   0.1820
  -6.000  -0.6605   0.03812   0.02863  -0.0302   1.0000   0.1643
  -6.250  -0.6766   0.04005   0.03071  -0.0313   1.0000   0.1510
  -6.500  -0.6927   0.04195   0.03244  -0.0324   1.0000   0.1412
  -6.750  -0.7057   0.04453   0.03571  -0.0336   1.0000   0.1350
  -7.000  -0.7190   0.04653   0.03781  -0.0348   1.0000   0.1289
  -7.250  -0.7287   0.04935   0.04085  -0.0360   1.0000   0.1248
  -7.500  -0.7315   0.05266   0.04469  -0.0376   1.0000   0.1231
  -7.750  -0.7308   0.05616   0.04859  -0.0392   1.0000   0.1227
  -8.000  -0.7247   0.05976   0.05253  -0.0411   1.0000   0.1230
  -8.250  -0.7134   0.06338   0.05640  -0.0433   1.0000   0.1234
  -8.500  -0.6987   0.06687   0.06007  -0.0456   1.0000   0.1241
  -8.750  -0.6822   0.07021   0.06352  -0.0482   1.0000   0.1248
  -9.000  -0.6665   0.07352   0.06688  -0.0508   1.0000   0.1255
  -9.250  -0.6498   0.07672   0.07012  -0.0534   1.0000   0.1264
  -9.500  -0.5116   0.08212   0.07551  -0.0567   1.0000   0.1373
  -9.750  -0.4932   0.08631   0.07961  -0.0575   1.0000   0.1396
 -10.000  -0.5008   0.08968   0.08293  -0.0593   1.0000   0.1413
 -10.250  -0.3291   0.11777   0.11062  -0.0337   1.0000   0.3090
 -10.500  -0.3329   0.12146   0.11424  -0.0343   1.0000   0.3042
 -10.750  -0.3269   0.12325   0.11597  -0.0351   1.0000   0.2928
 -11.000  -0.3289   0.12655   0.11921  -0.0356   1.0000   0.2863
 -11.250  -0.3354   0.12928   0.12191  -0.0365   1.0000   0.2747
 -11.500  -0.3294   0.13193   0.12447  -0.0365   1.0000   0.2687
 -11.750  -0.3333   0.13456   0.12706  -0.0370   1.0000   0.2592
 -12.000  -0.3488   0.13948   0.13196  -0.0374   1.0000   0.2546
 -12.250  -0.3320   0.13996   0.13235  -0.0369   1.0000   0.2459
 -12.500  -0.3655   0.14674   0.13916  -0.0381   1.0000   0.2386
 -12.750  -0.3380   0.14583   0.13812  -0.0369   1.0000   0.2325
 -13.000  -0.3583   0.15031   0.14262  -0.0377   1.0000   0.2236
 -13.250  -0.3506   0.15236   0.14458  -0.0369   1.0000   0.2194
 -13.500  -0.3508   0.15440   0.14657  -0.0365   1.0000   0.2110
 -13.750  -0.3881   0.16284   0.15506  -0.0378   1.0000   0.2056
 -14.000  -0.3600   0.16074   0.15284  -0.0358   1.0000   0.2020
 -14.250  -0.3624   0.16300   0.15506  -0.0352   1.0000   0.1953
 -14.500  -0.3896   0.16971   0.16181  -0.0361   1.0000   0.1899
 -14.750  -0.3809   0.17078   0.16279  -0.0346   1.0000   0.1877
 -15.000  -0.3757   0.17166   0.16361  -0.0332   1.0000   0.1815
 -15.250  -0.3903   0.17570   0.16766  -0.0334   1.0000   0.1753
 -15.500  -0.4046   0.18129   0.17323  -0.0332   1.0000   0.1724
 -15.750  -0.3929   0.18047   0.17234  -0.0310   1.0000   0.1678
 -16.000  -0.4000   0.18321   0.17506  -0.0303   1.0000   0.1620
 -16.250  -0.4277   0.19125   0.18314  -0.0314   1.0000   0.1575
 -16.500  -0.4222   0.19195   0.18375  -0.0294   1.0000   0.1560
 -16.750  -0.4171   0.19194   0.18369  -0.0273   1.0000   0.1522
 -17.000  -0.4234   0.19452   0.18625  -0.0262   1.0000   0.1476
 -17.250  -0.4359   0.19848   0.19022  -0.0259   1.0000   0.1438
 -17.500  -0.4621   0.20827   0.20003  -0.0265   1.0000   0.1413
 -17.750  -0.4503   0.20546   0.19714  -0.0236   1.0000   0.1400
 -18.000  -0.4500   0.20606   0.19769  -0.0215   1.0000   0.1363
 -18.250  -0.4571   0.20866   0.20028  -0.0203   1.0000   0.1321
 -18.500  -0.4700   0.21281   0.20444  -0.0199   1.0000   0.1283
 -18.750  -0.4916   0.22201   0.21365  -0.0201   1.0000   0.1260
 -19.000  -0.4831   0.21897   0.21054  -0.0170   1.0000   0.1246
 -19.250  -0.4856   0.21996   0.21150  -0.0149   1.0000   0.1215
 -19.500  -0.4929   0.22245   0.21398  -0.0135   1.0000   0.1179
 -19.750  -0.5028   0.22576   0.21729  -0.0125   1.0000   0.1149
 -20.000  -0.5186   0.23188   0.22343  -0.0123   1.0000   0.1125
