  
       XFOIL         Version 6.99
  
 Calculated polar for: E591                                            
  
 1 1 Reynolds number fixed          Mach number fixed         
  
 xtrf =   1.000 (top)        1.000 (bottom)  
 Mach =   0.000     Re =     0.050 e 6     Ncrit =   9.000
  
   alpha    CL        CD       CDp       CM     Top_Xtr  Bot_Xtr
  ------ -------- --------- --------- -------- -------- --------
   0.000   0.3572   0.05517   0.04765  -0.1332   0.7509   0.5707
   0.250   0.3882   0.05535   0.04774  -0.1333   0.7417   0.5994
   0.500   0.4027   0.05642   0.04875  -0.1326   0.7316   0.6195
   0.750   0.4377   0.05667   0.04887  -0.1339   0.7224   0.6466
   1.000   0.4521   0.05786   0.05000  -0.1334   0.7124   0.6662
   1.250   0.4777   0.05836   0.05043  -0.1332   0.7035   0.6893
   1.500   0.4944   0.05947   0.05150  -0.1326   0.6944   0.7111
   1.750   0.5128   0.06043   0.05242  -0.1322   0.6850   0.7349
   2.000   0.5389   0.06105   0.05298  -0.1322   0.6770   0.7649
   2.250   0.5395   0.06292   0.05490  -0.1306   0.6673   0.7868
   2.500   0.5807   0.06196   0.05390  -0.1302   0.6609   0.8367
   2.750   0.5558   0.06531   0.05739  -0.1272   0.6512   0.8576
   3.000   0.5777   0.06512   0.05729  -0.1265   0.6436   1.0000
   3.250   0.6030   0.06852   0.06051  -0.1321   0.6333   1.0000
   3.500   0.6691   0.06954   0.06114  -0.1393   0.6235   1.0000
   3.750   0.6667   0.07346   0.06498  -0.1401   0.6151   1.0000
   4.000   0.6925   0.07554   0.06688  -0.1419   0.6066   1.0000
   4.250   0.7151   0.07780   0.06898  -0.1431   0.5988   1.0000
   4.500   0.7064   0.08194   0.07311  -0.1430   0.5926   1.0000
   4.750   0.7630   0.08179   0.07271  -0.1447   0.5835   1.0000
   5.000   0.7408   0.08702   0.07798  -0.1442   0.5785   1.0000
   5.250   0.7339   0.09131   0.08229  -0.1444   0.5753   1.0000
   5.500   0.7363   0.09502   0.08598  -0.1449   0.5720   1.0000
   5.750   0.7500   0.09810   0.08901  -0.1456   0.5681   1.0000
   6.000   0.7655   0.10139   0.09226  -0.1465   0.5658   1.0000
   6.250   0.7783   0.10507   0.09591  -0.1475   0.5645   1.0000
   6.250   0.7790   0.10484   0.09566  -0.1472   0.5621   1.0000
   6.350   0.7835   0.10648   0.09730  -0.1477   0.5626   1.0000
   6.450   0.7910   0.10806   0.09887  -0.1483   0.5632   1.0000
   7.250   0.7532   0.12801   0.11905  -0.1545   0.6215   1.0000
   7.000   0.7055   0.12289   0.11406  -0.1517   0.6277   1.0000
   7.100   0.7209   0.12440   0.11552  -0.1524   0.6244   1.0000
   7.200   0.7416   0.12659   0.11766  -0.1537   0.6222   1.0000
   7.500   0.7292   0.12861   0.11971  -0.1526   0.6101   1.0000
   7.250   0.7532   0.12801   0.11905  -0.1545   0.6215   1.0000
   7.350   0.7292   0.12767   0.11877  -0.1529   0.6185   1.0000
   7.450   0.7256   0.12809   0.11921  -0.1524   0.6124   1.0000
   7.750   0.7684   0.13294   0.12397  -0.1545   0.6029   1.0000
   8.000   0.7542   0.13435   0.12541  -0.1535   0.5920   1.0000
   8.250   0.7871   0.13824   0.12924  -0.1550   0.5843   1.0000
   8.500   0.7792   0.14037   0.13139  -0.1547   0.5760   1.0000
   8.750   0.8031   0.14352   0.13452  -0.1556   0.5664   1.0000
   9.000   0.8084   0.14660   0.13760  -0.1560   0.5597   1.0000
   9.250   0.8208   0.14900   0.14001  -0.1564   0.5488   1.0000
   9.500   0.8631   0.15504   0.14600  -0.1583   0.5442   1.0000
   9.750   0.8388   0.15464   0.14566  -0.1575   0.5323   1.0000
  10.000   0.8752   0.15957   0.15057  -0.1588   0.5259   1.0000
  10.250   0.8599   0.16056   0.15158  -0.1589   0.5171   1.0000
  10.500   0.8821   0.16396   0.15500  -0.1597   0.5090   1.0000
  10.750   0.8945   0.16781   0.15885  -0.1606   0.5040   1.0000
  11.000   0.8967   0.16919   0.16027  -0.1611   0.4926   1.0000
  11.250   0.9312   0.17481   0.16589  -0.1621   0.4876   1.0000
  11.500   0.9142   0.17502   0.16612  -0.1628   0.4792   1.0000
  11.750   0.9356   0.17848   0.16961  -0.1635   0.4712   1.0000
  12.000   0.9512   0.18288   0.17404  -0.1645   0.4668   1.0000
  12.250   0.9471   0.18351   0.17470  -0.1654   0.4566   1.0000
  12.500   0.9745   0.18830   0.17952  -0.1661   0.4509   1.0000
  12.750   0.9690   0.18983   0.18107  -0.1675   0.4448   1.0000
  13.000   0.9812   0.19229   0.18356  -0.1683   0.4357   1.0000
  13.250   1.0134   0.19873   0.19006  -0.1688   0.4313   1.0000
  13.500   0.9969   0.19800   0.18935  -0.1707   0.4242   1.0000
  13.750   1.0131   0.20108   0.19247  -0.1714   0.4163   1.0000
  14.250   1.0259   0.20633   0.19778  -0.1741   0.4044   1.0000
  14.500   1.0431   0.20975   0.20126  -0.1748   0.3976   1.0000
  14.750   1.0748   0.21776   0.20932  -0.1752   0.3940   1.0000
  15.000   1.0548   0.21471   0.20629  -0.1778   0.3856   1.0000
  15.250   1.0718   0.21828   0.20992  -0.1785   0.3794   1.0000
  15.500   1.1045   0.22709   0.21880  -0.1787   0.3760   1.0000
  15.250   1.0718   0.21828   0.20991  -0.1785   0.3794   1.0000
  15.350   1.0828   0.22080   0.21247  -0.1786   0.3777   1.0000
  15.450   1.0978   0.22486   0.21658  -0.1786   0.3765   1.0000
  15.750   1.0829   0.22317   0.21488  -0.1818   0.3682   1.0000
  16.000   1.0992   0.22665   0.21843  -0.1825   0.3616   1.0000
  16.500   1.1106   0.23169   0.22356  -0.1860   0.3517   1.0000
  16.750   1.1243   0.23473   0.22666  -0.1869   0.3448   1.0000
  17.000   1.1529   0.24284   0.23488  -0.1869   0.3410   1.0000
  17.250   1.1385   0.24036   0.23239  -0.1904   0.3359   1.0000
  17.500   1.1484   0.24276   0.23485  -0.1917   0.3286   1.0000
  17.750   1.1728   0.24939   0.24157  -0.1917   0.3242   1.0000
  18.000   1.1679   0.24957   0.24176  -0.1947   0.3206   1.0000
  17.750   1.1728   0.24939   0.24157  -0.1917   0.3242   1.0000
  17.950   1.1717   0.25051   0.24271  -0.1938   0.3220   1.0000
  18.250   1.1724   0.25086   0.24311  -0.1966   0.3132   1.0000
  18.500   1.1912   0.25572   0.24806  -0.1970   0.3082   1.0000
  18.750   1.2017   0.26040   0.25279  -0.1986   0.3054   1.0000
  19.000   1.1967   0.25910   0.25152  -0.2017   0.2985   1.0000
  19.250   1.2107   0.26266   0.25516  -0.2026   0.2928   1.0000
  19.500   1.2400   0.27366   0.26627  -0.2020   0.2895   1.0000
  19.750   1.2220   0.26767   0.26027  -0.2068   0.2845   1.0000
  19.500   1.2401   0.27364   0.26626  -0.2020   0.2895   1.0000
  19.600   1.2275   0.26933   0.26192  -0.2044   0.2885   1.0000
  19.700   1.2220   0.26763   0.26023  -0.2062   0.2860   1.0000
  20.000   1.2312   0.27014   0.26281  -0.2083   0.2781   1.0000
   0.000   0.3572   0.05517   0.04765  -0.1332   0.7509   0.5707
  -0.250   0.3449   0.05424   0.04674  -0.1349   0.7612   0.5480
  -0.500   0.3161   0.05389   0.04648  -0.1354   0.7704   0.5113
  -0.750   0.3067   0.05293   0.04544  -0.1385   0.7808   0.4843
  -1.000   0.2856   0.05219   0.04465  -0.1409   0.7908   0.4421
  -1.250   0.2680   0.05105   0.04346  -0.1431   0.8011   0.3902
  -1.500   0.2552   0.04982   0.04190  -0.1466   0.8123   0.3362
  -1.750   0.2178   0.04927   0.04103  -0.1460   0.8220   0.2479
  -2.000   0.2047   0.04876   0.04021  -0.1475   0.8346   0.2179
  -2.250   0.1422   0.04998   0.04156  -0.1420   0.8425   0.1792
  -2.500   0.1173   0.05037   0.04191  -0.1414   0.8544   0.1662
  -2.750   0.0558   0.05233   0.04430  -0.1349   0.8631   0.1513
  -3.000  -0.0029   0.05590   0.04873  -0.1259   0.8733   0.1432
  -3.250  -0.1135   0.06706   0.06117  -0.1004   0.8804   0.1465
  -3.500  -0.1517   0.07242   0.06675  -0.0922   0.8903   0.1492
  -4.250  -0.2433   0.10946   0.10468  -0.0276   0.9134   0.2961
  -4.500  -0.2301   0.11053   0.10568  -0.0252   0.9246   0.2899
  -4.750  -0.2269   0.11173   0.10683  -0.0252   0.9361   0.2813
  -5.000  -0.2764   0.11847   0.11363  -0.0223   0.9446   0.2739
  -5.250  -0.2418   0.11638   0.11144  -0.0212   0.9565   0.2667
  -5.500  -0.3106   0.12483   0.11996  -0.0174   0.9656   0.2548
  -5.750  -0.2714   0.12195   0.11697  -0.0154   0.9771   0.2500
  -6.000  -0.3492   0.13154   0.12666  -0.0110   0.9863   0.2361
  -5.750  -0.2714   0.12195   0.11697  -0.0154   0.9771   0.2500
  -5.850  -0.2733   0.12251   0.11752  -0.0141   0.9815   0.2456
  -5.950  -0.2896   0.12418   0.11921  -0.0124   0.9854   0.2407
  -6.250  -0.3130   0.12812   0.12314  -0.0060   0.9973   0.2318
  -6.500  -0.3116   0.12930   0.12426  -0.0054   1.0000   0.2242
  -6.750  -0.3199   0.13196   0.12688  -0.0073   1.0000   0.2199
  -7.000  -0.3297   0.13627   0.13112  -0.0088   1.0000   0.2172
  -7.250  -0.2936   0.13373   0.12844  -0.0099   1.0000   0.2148
  -7.500  -0.2771   0.13353   0.12813  -0.0113   1.0000   0.2102
  -7.750  -0.2722   0.13467   0.12919  -0.0130   1.0000   0.2054
  -8.000  -0.2831   0.13802   0.13249  -0.0152   1.0000   0.2014
  -8.250  -0.2871   0.14169   0.13607  -0.0168   1.0000   0.1993
  -8.500  -0.2558   0.13917   0.13340  -0.0179   1.0000   0.1971
  -8.750  -0.2410   0.13898   0.13310  -0.0194   1.0000   0.1928
  -9.000  -0.2365   0.14014   0.13416  -0.0212   1.0000   0.1884
  -9.250  -0.2433   0.14302   0.13698  -0.0234   1.0000   0.1845
  -9.500  -0.2568   0.14837   0.14226  -0.0252   1.0000   0.1821
  -9.750  -0.2287   0.14578   0.13952  -0.0262   1.0000   0.1805
 -10.000  -0.2151   0.14548   0.13911  -0.0274   1.0000   0.1763
 -10.250  -0.2126   0.14684   0.14038  -0.0289   1.0000   0.1720
 -10.500  -0.2220   0.15020   0.14368  -0.0309   1.0000   0.1677
 -10.750  -0.2303   0.15472   0.14812  -0.0323   1.0000   0.1654
 -11.000  -0.2106   0.15290   0.14616  -0.0327   1.0000   0.1632
 -11.250  -0.2050   0.15361   0.14678  -0.0334   1.0000   0.1582
 -11.500  -0.2083   0.15574   0.14883  -0.0345   1.0000   0.1542
 -11.750  -0.2375   0.16417   0.15727  -0.0367   1.0000   0.1503
 -12.000  -0.2199   0.16247   0.15542  -0.0365   1.0000   0.1492
 -12.250  -0.2105   0.16202   0.15487  -0.0362   1.0000   0.1465
 -12.500  -0.2107   0.16360   0.15637  -0.0365   1.0000   0.1427
 -12.750  -0.2158   0.16604   0.15874  -0.0371   1.0000   0.1392
 -13.000  -0.2295   0.17070   0.16337  -0.0383   1.0000   0.1363
 -13.250  -0.2359   0.17463   0.16722  -0.0386   1.0000   0.1349
 -13.500  -0.2270   0.17364   0.16614  -0.0378   1.0000   0.1333
 -13.750  -0.2268   0.17482   0.16725  -0.0373   1.0000   0.1301
 -14.000  -0.2314   0.17705   0.16943  -0.0374   1.0000   0.1267
 -14.250  -0.2396   0.18009   0.17242  -0.0377   1.0000   0.1239
 -14.750  -0.2546   0.18721   0.17942  -0.0379   1.0000   0.1209
 -15.000  -0.2514   0.18706   0.17920  -0.0367   1.0000   0.1189
 -15.250  -0.2549   0.18884   0.18093  -0.0361   1.0000   0.1161
 -15.500  -0.2610   0.19122   0.18326  -0.0358   1.0000   0.1134
 -15.750  -0.2700   0.19439   0.18640  -0.0359   1.0000   0.1109
 -16.000  -0.2903   0.20260   0.19457  -0.0370   1.0000   0.1089
 -16.250  -0.2831   0.20043   0.19233  -0.0351   1.0000   0.1080
 -16.500  -0.2845   0.20112   0.19296  -0.0338   1.0000   0.1059
 -16.750  -0.2899   0.20317   0.19497  -0.0331   1.0000   0.1030
 -17.000  -0.2974   0.20571   0.19747  -0.0326   1.0000   0.1007
 -17.250  -0.3082   0.20963   0.20136  -0.0327   1.0000   0.0985
 -17.000  -0.2974   0.20571   0.19748  -0.0326   1.0000   0.1007
 -17.100  -0.3012   0.20701   0.19876  -0.0326   1.0000   0.0997
 -17.200  -0.3054   0.20856   0.20030  -0.0326   1.0000   0.0990
 -17.500  -0.3220   0.21578   0.20747  -0.0328   1.0000   0.0974
 -17.750  -0.3204   0.21485   0.20648  -0.0310   1.0000   0.0967
 -18.000  -0.3236   0.21577   0.20736  -0.0295   1.0000   0.0952
 -18.250  -0.3295   0.21779   0.20934  -0.0285   1.0000   0.0931
 -18.500  -0.3367   0.22019   0.21172  -0.0276   1.0000   0.0912
 -18.750  -0.3450   0.22295   0.21445  -0.0269   1.0000   0.0894
 -19.000  -0.3552   0.22671   0.21818  -0.0266   1.0000   0.0880
 -19.250  -0.3672   0.23228   0.22371  -0.0264   1.0000   0.0871
 -19.500  -0.3685   0.23183   0.22322  -0.0244   1.0000   0.0865
 -19.750  -0.3732   0.23290   0.22425  -0.0227   1.0000   0.0853
 -20.000  -0.3798   0.23489   0.22621  -0.0214   1.0000   0.0837
