  
       XFOIL         Version 6.99
  
 Calculated polar for: SD7084 (9.6%)                                   
  
 1 1 Reynolds number fixed          Mach number fixed         
  
 xtrf =   1.000 (top)        1.000 (bottom)  
 Mach =   0.000     Re =     0.050 e 6     Ncrit =   9.000
  
   alpha    CL        CD       CDp       CM     Top_Xtr  Bot_Xtr
  ------ -------- --------- --------- -------- -------- --------
   0.000  -0.0070   0.02059   0.01073  -0.0150   1.0000   1.0000
   0.250   0.0093   0.02113   0.01112  -0.0144   1.0000   1.0000
   0.500   0.0254   0.02174   0.01160  -0.0140   1.0000   1.0000
   0.750   0.0411   0.02241   0.01214  -0.0136   1.0000   1.0000
   1.000   0.0994   0.02389   0.01347  -0.0211   0.9818   1.0000
   1.250   0.1568   0.02514   0.01462  -0.0281   0.9600   1.0000
   1.500   0.2101   0.02618   0.01559  -0.0340   0.9374   1.0000
   1.750   0.2677   0.02706   0.01644  -0.0401   0.9155   1.0000
   2.000   0.3119   0.02765   0.01703  -0.0436   0.8915   1.0000
   2.250   0.3639   0.02807   0.01749  -0.0480   0.8692   1.0000
   2.500   0.4120   0.02829   0.01776  -0.0513   0.8461   1.0000
   2.750   0.4575   0.02836   0.01792  -0.0539   0.8228   1.0000
   3.000   0.5145   0.02793   0.01762  -0.0575   0.8020   1.0000
   3.250   0.5517   0.02776   0.01756  -0.0580   0.7781   1.0000
   3.500   0.6032   0.02692   0.01684  -0.0596   0.7582   1.0000
   3.750   0.6347   0.02671   0.01671  -0.0588   0.7331   1.0000
   4.000   0.6688   0.02637   0.01644  -0.0580   0.7088   1.0000
   4.250   0.7066   0.02581   0.01596  -0.0573   0.6857   1.0000
   4.500   0.7356   0.02574   0.01593  -0.0559   0.6598   1.0000
   4.750   0.7617   0.02592   0.01614  -0.0543   0.6335   1.0000
   5.000   0.7876   0.02619   0.01647  -0.0528   0.6077   1.0000
   5.250   0.8142   0.02651   0.01678  -0.0513   0.5832   1.0000
   5.500   0.8401   0.02692   0.01718  -0.0499   0.5589   1.0000
   5.750   0.8614   0.02771   0.01804  -0.0484   0.5346   1.0000
   6.000   0.8860   0.02834   0.01872  -0.0470   0.5122   1.0000
   6.250   0.9080   0.02919   0.01964  -0.0456   0.4898   1.0000
   6.500   0.9308   0.03007   0.02057  -0.0442   0.4687   1.0000
   6.750   0.9517   0.03107   0.02167  -0.0427   0.4475   1.0000
   7.000   0.9758   0.03194   0.02257  -0.0415   0.4276   1.0000
   7.250   0.9933   0.03322   0.02408  -0.0398   0.4069   1.0000
   7.500   1.0171   0.03413   0.02502  -0.0385   0.3870   1.0000
   7.750   1.0339   0.03550   0.02659  -0.0367   0.3667   1.0000
   8.000   1.0548   0.03654   0.02771  -0.0352   0.3457   1.0000
   8.250   1.0720   0.03783   0.02914  -0.0333   0.3245   1.0000
   8.500   1.0960   0.03846   0.02972  -0.0318   0.3001   1.0000
   8.750   1.1077   0.03975   0.03124  -0.0293   0.2755   1.0000
   9.000   1.1228   0.04057   0.03208  -0.0269   0.2475   1.0000
   9.250   1.1391   0.04091   0.03217  -0.0244   0.2147   1.0000
   9.500   1.1437   0.04211   0.03341  -0.0210   0.1841   1.0000
   9.750   1.1481   0.04358   0.03480  -0.0178   0.1557   1.0000
  10.000   1.1548   0.04534   0.03633  -0.0151   0.1319   1.0000
  10.250   1.1564   0.04798   0.03916  -0.0122   0.1167   1.0000
  10.500   1.1635   0.05090   0.04213  -0.0101   0.1054   1.0000
  10.750   1.1624   0.05380   0.04538  -0.0075   0.0974   1.0000
  11.000   1.1632   0.05752   0.04928  -0.0055   0.0925   1.0000
  11.250   1.1488   0.06148   0.05368  -0.0026   0.0912   1.0000
  11.500   1.1303   0.06545   0.05795  -0.0000   0.0906   1.0000
  11.750   1.1070   0.06986   0.06265   0.0016   0.0904   1.0000
  12.000   1.0836   0.07479   0.06779   0.0017   0.0911   1.0000
  12.250   1.0582   0.08052   0.07370   0.0005   0.0920   1.0000
  12.500   1.0342   0.08692   0.08017  -0.0019   0.0930   1.0000
  12.750   1.0102   0.09425   0.08758  -0.0054   0.0938   1.0000
  12.750   1.0102   0.09425   0.08758  -0.0054   0.0938   1.0000
  12.850   1.0024   0.09719   0.09054  -0.0069   0.0941   1.0000
  14.000   0.8179   0.17389   0.16666  -0.0594   0.2428   1.0000
  13.750   0.8114   0.16970   0.16245  -0.0589   0.2567   1.0000
  13.850   0.8043   0.17035   0.16306  -0.0601   0.2552   1.0000
  13.950   0.8012   0.17118   0.16388  -0.0609   0.2506   1.0000
  14.250   0.8073   0.17593   0.16865  -0.0620   0.2360   1.0000
  14.000   0.8179   0.17389   0.16666  -0.0594   0.2428   1.0000
  14.100   0.8113   0.17453   0.16727  -0.0607   0.2416   1.0000
  14.200   0.8067   0.17526   0.16798  -0.0617   0.2383   1.0000
  14.500   0.8205   0.18155   0.17431  -0.0623   0.2281   1.0000
  14.250   0.8073   0.17593   0.16865  -0.0620   0.2360   1.0000
  14.350   0.8295   0.18069   0.17350  -0.0604   0.2292   1.0000
  14.450   0.8245   0.18143   0.17422  -0.0616   0.2287   1.0000
  14.750   0.8346   0.18683   0.17964  -0.0623   0.2150   1.0000
  14.500   0.8205   0.18155   0.17431  -0.0623   0.2281   1.0000
  14.600   0.8158   0.18218   0.17492  -0.0635   0.2261   1.0000
  14.700   0.8161   0.18326   0.17599  -0.0642   0.2212   1.0000
  15.000   0.8231   0.18822   0.18096  -0.0656   0.2112   1.0000
  15.250   0.8494   0.19611   0.18893  -0.0645   0.2014   1.0000
  15.500   0.8360   0.19662   0.18936  -0.0683   0.1988   1.0000
  15.750   0.8609   0.20415   0.19701  -0.0671   0.1876   1.0000
  16.000   0.8491   0.20441   0.19715  -0.0710   0.1854   1.0000
  16.250   0.8522   0.20724   0.20001  -0.0731   0.1788   1.0000
  16.500   0.8790   0.21644   0.20928  -0.0718   0.1738   1.0000
  16.750   0.8680   0.21585   0.20862  -0.0760   0.1718   1.0000
  17.000   0.8712   0.21839   0.21114  -0.0782   0.1654   1.0000
  17.250   0.8931   0.22644   0.21925  -0.0774   0.1600   1.0000
  17.500   0.8854   0.22593   0.21867  -0.0815   0.1565   1.0000
  17.750   0.8932   0.22920   0.22196  -0.0831   0.1506   1.0000
  18.000   0.9173   0.23900   0.23182  -0.0819   0.1466   1.0000
  18.250   0.9096   0.23753   0.23028  -0.0863   0.1449   1.0000
  18.500   0.9129   0.23962   0.23235  -0.0890   0.1403   1.0000
  18.750   0.9231   0.24355   0.23631  -0.0902   0.1362   1.0000
  19.000   0.9448   0.25366   0.24647  -0.0893   0.1333   1.0000
  19.250   0.9390   0.25165   0.24439  -0.0938   0.1318   1.0000
  19.500   0.9424   0.25334   0.24606  -0.0967   0.1275   1.0000
  19.750   0.9526   0.25719   0.24998  -0.0979   0.1229   1.0000
  20.000   0.9698   0.26590   0.25873  -0.0976   0.1199   1.0000
   0.000  -0.0070   0.02059   0.01073  -0.0150   1.0000   1.0000
  -0.250  -0.0236   0.02011   0.01042  -0.0156   1.0000   1.0000
  -0.500  -0.0403   0.01969   0.01022  -0.0164   1.0000   1.0000
  -0.750  -0.0572   0.01932   0.01007  -0.0172   1.0000   1.0000
  -1.000  -0.0740   0.01901   0.01000  -0.0181   1.0000   1.0000
  -1.250  -0.0906   0.01874   0.01001  -0.0191   1.0000   1.0000
  -1.500  -0.1070   0.01853   0.01012  -0.0203   1.0000   1.0000
  -1.750  -0.1225   0.01838   0.01035  -0.0216   1.0000   1.0000
  -2.000  -0.1369   0.01830   0.01068  -0.0231   1.0000   1.0000
  -2.250  -0.1487   0.01831   0.01119  -0.0249   1.0000   1.0000
  -2.500  -0.2230   0.02304   0.01247  -0.0221   1.0000   0.2133
  -2.750  -0.2479   0.02447   0.01374  -0.0231   1.0000   0.1732
  -3.000  -0.2720   0.02577   0.01509  -0.0241   1.0000   0.1513
  -3.250  -0.2961   0.02739   0.01675  -0.0251   1.0000   0.1418
  -3.500  -0.3202   0.02903   0.01881  -0.0263   1.0000   0.1358
  -3.750  -0.3415   0.03095   0.02073  -0.0272   1.0000   0.1287
  -4.000  -0.3639   0.03294   0.02336  -0.0284   1.0000   0.1253
  -4.250  -0.3850   0.03551   0.02639  -0.0295   1.0000   0.1259
  -4.500  -0.4044   0.03843   0.02966  -0.0306   1.0000   0.1278
  -4.750  -0.4231   0.04221   0.03434  -0.0312   1.0000   0.1363
  -5.000  -0.4388   0.04590   0.03822  -0.0322   1.0000   0.1420
  -5.250  -0.4528   0.05063   0.04348  -0.0322   1.0000   0.1565
  -6.000  -0.3075   0.06249   0.05690  -0.0031   1.0000   0.4247
  -6.250  -0.3042   0.06522   0.05953  -0.0056   1.0000   0.4104
  -6.500  -0.3021   0.06804   0.06226  -0.0078   1.0000   0.3956
  -6.750  -0.3009   0.07096   0.06510  -0.0098   1.0000   0.3807
  -7.000  -0.3007   0.07394   0.06800  -0.0116   1.0000   0.3659
  -7.250  -0.3010   0.07697   0.07095  -0.0130   1.0000   0.3518
  -7.500  -0.3018   0.08014   0.07406  -0.0143   1.0000   0.3379
  -7.750  -0.3035   0.08332   0.07717  -0.0154   1.0000   0.3240
  -8.000  -0.3056   0.08653   0.08035  -0.0163   1.0000   0.3096
  -8.250  -0.3080   0.08976   0.08351  -0.0171   1.0000   0.2951
  -8.500  -0.3108   0.09302   0.08672  -0.0178   1.0000   0.2814
  -8.750  -0.3171   0.09663   0.09030  -0.0183   1.0000   0.2695
  -9.000  -0.3335   0.10125   0.09491  -0.0193   1.0000   0.2574
  -8.750  -0.3171   0.09663   0.09030  -0.0183   1.0000   0.2695
  -8.850  -0.3144   0.09752   0.09116  -0.0184   1.0000   0.2636
  -8.950  -0.3402   0.10123   0.09493  -0.0196   1.0000   0.2579
  -9.250  -0.3197   0.10289   0.09646  -0.0186   1.0000   0.2479
  -9.500  -0.3227   0.10650   0.10002  -0.0186   1.0000   0.2402
  -9.750  -0.3477   0.11213   0.10568  -0.0198   1.0000   0.2290
 -10.000  -0.3248   0.11270   0.10614  -0.0181   1.0000   0.2233
 -10.250  -0.3472   0.11826   0.11172  -0.0190   1.0000   0.2143
 -10.500  -0.3298   0.11908   0.11246  -0.0174   1.0000   0.2084
 -10.750  -0.3509   0.12469   0.11808  -0.0182   1.0000   0.1998
 -11.000  -0.3352   0.12537   0.11870  -0.0165   1.0000   0.1945
 -11.250  -0.3547   0.13085   0.12421  -0.0172   1.0000   0.1853
 -11.500  -0.3412   0.13143   0.12474  -0.0155   1.0000   0.1808
 -11.750  -0.3653   0.13783   0.13116  -0.0163   1.0000   0.1713
 -12.000  -0.3491   0.13755   0.13083  -0.0144   1.0000   0.1682
 -12.250  -0.3528   0.14013   0.13341  -0.0138   1.0000   0.1612
 -12.500  -0.3691   0.14592   0.13919  -0.0138   1.0000   0.1567
 -12.750  -0.3578   0.14557   0.13881  -0.0120   1.0000   0.1534
 -13.000  -0.3611   0.14791   0.14115  -0.0112   1.0000   0.1477
 -13.250  -0.3843   0.15559   0.14884  -0.0116   1.0000   0.1428
 -13.500  -0.3711   0.15398   0.14720  -0.0096   1.0000   0.1412
 -13.750  -0.3676   0.15445   0.14768  -0.0084   1.0000   0.1368
 -14.000  -0.3752   0.15749   0.15073  -0.0078   1.0000   0.1318
 -14.250  -0.3923   0.16429   0.15753  -0.0076   1.0000   0.1285
 -14.500  -0.3818   0.16236   0.15559  -0.0057   1.0000   0.1268
 -14.750  -0.3815   0.16328   0.15651  -0.0043   1.0000   0.1225
 -15.000  -0.3899   0.16652   0.15980  -0.0036   1.0000   0.1175
 -15.250  -0.4051   0.17306   0.16634  -0.0033   1.0000   0.1144
 -15.500  -0.3980   0.17155   0.16482  -0.0012   1.0000   0.1128
 -15.750  -0.3990   0.17265   0.16592   0.0004   1.0000   0.1090
 -16.000  -0.4052   0.17528   0.16856   0.0015   1.0000   0.1050
 -16.250  -0.4340   0.18731   0.18060   0.0008   1.0000   0.1008
 -16.500  -0.4263   0.18502   0.17831   0.0029   1.0000   0.1004
 -16.750  -0.4226   0.18409   0.17738   0.0051   1.0000   0.0992
 -17.000  -0.4241   0.18516   0.17845   0.0069   1.0000   0.0966
 -17.250  -0.4289   0.18742   0.18073   0.0083   1.0000   0.0936
 -17.500  -0.4356   0.19029   0.18361   0.0095   1.0000   0.0907
 -17.750  -0.4484   0.19596   0.18931   0.0099   1.0000   0.0879
 -18.000  -0.4597   0.20219   0.19552   0.0108   1.0000   0.0867
 -18.250  -0.4568   0.20101   0.19435   0.0131   1.0000   0.0861
 -18.500  -0.4574   0.20137   0.19475   0.0152   1.0000   0.0847
 -18.750  -0.4612   0.20319   0.19659   0.0170   1.0000   0.0824
 -19.000  -0.4666   0.20570   0.19911   0.0185   1.0000   0.0797
 -19.250  -0.4730   0.20863   0.20206   0.0198   1.0000   0.0772
 -19.500  -0.4829   0.21329   0.20675   0.0206   1.0000   0.0746
 -19.750  -0.4975   0.22202   0.21547   0.0211   1.0000   0.0732
 -20.000  -0.4955   0.22076   0.21422   0.0235   1.0000   0.0727
