  
       XFOIL         Version 6.99
  
 Calculated polar for: HT05                                            
  
 1 1 Reynolds number fixed          Mach number fixed         
  
 xtrf =   1.000 (top)        1.000 (bottom)  
 Mach =   0.000     Re =     0.050 e 6     Ncrit =   9.000
  
   alpha    CL        CD       CDp       CM     Top_Xtr  Bot_Xtr
  ------ -------- --------- --------- -------- -------- --------
   0.000   0.0001   0.01418   0.00326   0.0000   1.0000   1.0000
   0.250   0.0247   0.01419   0.00328   0.0007   1.0000   1.0000
   0.500   0.0494   0.01420   0.00334   0.0015   1.0000   1.0000
   0.750   0.0740   0.01423   0.00345   0.0022   1.0000   1.0000
   1.000   0.0986   0.01426   0.00359   0.0029   1.0000   1.0000
   1.250   0.1232   0.01431   0.00378   0.0036   1.0000   1.0000
   1.500   0.1479   0.01437   0.00402   0.0043   1.0000   1.0000
   1.750   0.1725   0.01444   0.00434   0.0050   1.0000   1.0000
   2.000   0.1971   0.01453   0.00470   0.0056   1.0000   1.0000
   2.250   0.2219   0.01463   0.00514   0.0062   1.0000   1.0000
   2.500   0.2470   0.01477   0.00572   0.0066   1.0000   1.0000
   2.500   0.2470   0.01477   0.00572   0.0066   1.0000   1.0000
   2.600   0.2573   0.01483   0.00603   0.0066   1.0000   1.0000
   2.700   0.2681   0.01493   0.00644   0.0063   1.0000   1.0000
   3.000   0.3472   0.01879   0.00803   0.0020   0.3985   1.0000
   3.250   0.3729   0.02059   0.00931   0.0032   0.3013   1.0000
   3.500   0.3994   0.02237   0.01086   0.0041   0.2405   1.0000
   3.750   0.4255   0.02410   0.01260   0.0049   0.2002   1.0000
   4.000   0.4525   0.02625   0.01479   0.0057   0.1782   1.0000
   4.250   0.4789   0.02820   0.01707   0.0064   0.1573   1.0000
   4.500   0.5056   0.03096   0.02017   0.0070   0.1486   1.0000
   4.750   0.5315   0.03369   0.02334   0.0076   0.1398   1.0000
   5.000   0.5564   0.03710   0.02733   0.0078   0.1335   1.0000
   5.250   0.5806   0.04141   0.03227   0.0077   0.1348   1.0000
   5.500   0.6030   0.04596   0.03707   0.0077   0.1373   1.0000
   5.750   0.6270   0.05435   0.04668   0.0030   0.1617   1.0000
   6.250   0.6685   0.07906   0.07255  -0.0406   0.3701   1.0000
   6.000   0.6635   0.07562   0.06914  -0.0415   0.3964   1.0000
   6.100   0.6637   0.07688   0.07039  -0.0415   0.3848   1.0000
   6.200   0.6689   0.07863   0.07213  -0.0405   0.3769   1.0000
   6.500   0.6746   0.08265   0.07611  -0.0395   0.3450   1.0000
   6.750   0.6902   0.08690   0.08034  -0.0358   0.3214   1.0000
   7.000   0.6859   0.08981   0.08320  -0.0381   0.3010   1.0000
   7.250   0.6893   0.09352   0.08691  -0.0384   0.2864   1.0000
   7.500   0.6919   0.09731   0.09064  -0.0386   0.2745   1.0000
   7.750   0.7024   0.10179   0.09511  -0.0378   0.2635   1.0000
   8.000   0.7199   0.10698   0.10033  -0.0357   0.2507   1.0000
   8.250   0.6975   0.10821   0.10140  -0.0399   0.2421   1.0000
   8.500   0.7045   0.11262   0.10580  -0.0398   0.2342   1.0000
   8.750   0.7228   0.11815   0.11135  -0.0378   0.2220   1.0000
   9.000   0.7035   0.11936   0.11243  -0.0419   0.2161   1.0000
   9.250   0.7156   0.12430   0.11738  -0.0409   0.2066   1.0000
   9.500   0.7125   0.12693   0.11996  -0.0425   0.1973   1.0000
   9.750   0.7154   0.13104   0.12402  -0.0432   0.1911   1.0000
  10.000   0.7204   0.13464   0.12762  -0.0436   0.1822   1.0000
  10.250   0.7253   0.13923   0.13218  -0.0443   0.1781   1.0000
  10.500   0.7204   0.14156   0.13446  -0.0465   0.1717   1.0000
  10.750   0.7442   0.14905   0.14204  -0.0442   0.1652   1.0000
  11.000   0.7295   0.14963   0.14252  -0.0482   0.1625   1.0000
  11.250   0.7317   0.15282   0.14569  -0.0494   0.1563   1.0000
  11.500   0.7537   0.16057   0.15349  -0.0476   0.1511   1.0000
  11.750   0.7416   0.16096   0.15380  -0.0514   0.1488   1.0000
  12.000   0.7429   0.16381   0.15663  -0.0530   0.1434   1.0000
  12.250   0.7692   0.17293   0.16580  -0.0505   0.1373   1.0000
  12.500   0.7584   0.17291   0.16571  -0.0543   0.1360   1.0000
  12.750   0.7567   0.17475   0.16751  -0.0568   0.1314   1.0000
  13.000   0.7698   0.17995   0.17275  -0.0564   0.1251   1.0000
  13.250   0.7771   0.18498   0.17774  -0.0574   0.1227   1.0000
  13.500   0.7736   0.18578   0.17850  -0.0606   0.1196   1.0000
  13.750   0.7792   0.18898   0.18170  -0.0621   0.1149   1.0000
  14.000   0.7963   0.19609   0.18886  -0.0611   0.1105   1.0000
  14.250   0.8025   0.20064   0.19341  -0.0626   0.1092   1.0000
  14.500   0.7997   0.20068   0.19341  -0.0661   0.1075   1.0000
  14.750   0.8038   0.20306   0.19577  -0.0684   0.1041   1.0000
  15.000   0.8113   0.20660   0.19931  -0.0697   0.1005   1.0000
  15.250   0.8244   0.21266   0.20542  -0.0696   0.0972   1.0000
  15.500   0.8372   0.22012   0.21287  -0.0701   0.0957   1.0000
  15.750   0.8358   0.21934   0.21204  -0.0737   0.0948   1.0000
  16.000   0.8395   0.22072   0.21340  -0.0766   0.0923   1.0000
  16.250   0.8465   0.22370   0.21638  -0.0786   0.0893   1.0000
  16.500   0.8549   0.22735   0.22004  -0.0800   0.0863   1.0000
  16.750   0.8695   0.23516   0.22790  -0.0794   0.0832   1.0000
  17.000   0.8786   0.24082   0.23354  -0.0809   0.0821   1.0000
  17.250   0.8798   0.23963   0.23231  -0.0847   0.0812   1.0000
  17.500   0.8852   0.24095   0.23361  -0.0877   0.0789   1.0000
  17.750   0.8928   0.24386   0.23653  -0.0899   0.0760   1.0000
  18.000   0.9013   0.24730   0.24002  -0.0916   0.0734   1.0000
  18.250   0.9108   0.25173   0.24448  -0.0927   0.0712   1.0000
  18.500   0.9313   0.26777   0.26057  -0.0905   0.0691   1.0000
  18.750   0.9327   0.26569   0.25846  -0.0942   0.0689   1.0000
  19.000   0.9363   0.26460   0.25734  -0.0979   0.0684   1.0000
  19.250   0.9422   0.26514   0.25787  -0.1012   0.0673   1.0000
  19.500   0.9497   0.26734   0.26007  -0.1039   0.0655   1.0000
  19.750   0.9578   0.27027   0.26301  -0.1062   0.0636   1.0000
  20.000   0.9661   0.27345   0.26619  -0.1083   0.0618   1.0000
   0.000   0.0001   0.01418   0.00326   0.0000   1.0000   1.0000
  -0.250  -0.0246   0.01419   0.00328  -0.0007   1.0000   1.0000
  -0.500  -0.0492   0.01420   0.00334  -0.0015   1.0000   1.0000
  -0.750  -0.0739   0.01423   0.00345  -0.0022   1.0000   1.0000
  -1.000  -0.0985   0.01426   0.00359  -0.0029   1.0000   1.0000
  -1.250  -0.1231   0.01431   0.00378  -0.0036   1.0000   1.0000
  -1.500  -0.1477   0.01437   0.00402  -0.0043   1.0000   1.0000
  -1.750  -0.1723   0.01444   0.00434  -0.0050   1.0000   1.0000
  -2.000  -0.1970   0.01453   0.00470  -0.0056   1.0000   1.0000
  -2.250  -0.2218   0.01463   0.00514  -0.0062   1.0000   1.0000
  -2.500  -0.2469   0.01477   0.00572  -0.0066   1.0000   1.0000
  -3.000  -0.3470   0.01879   0.00803  -0.0020   1.0000   0.3989
  -3.250  -0.3727   0.02059   0.00930  -0.0032   1.0000   0.3016
  -3.000  -0.3470   0.01879   0.00803  -0.0020   1.0000   0.3989
  -3.100  -0.3566   0.01949   0.00845  -0.0026   1.0000   0.3546
  -3.200  -0.3672   0.02022   0.00900  -0.0030   1.0000   0.3177
  -3.500  -0.3993   0.02236   0.01085  -0.0041   1.0000   0.2406
  -3.750  -0.4254   0.02410   0.01259  -0.0049   1.0000   0.2003
  -4.000  -0.4523   0.02623   0.01477  -0.0057   1.0000   0.1784
  -4.250  -0.4787   0.02819   0.01707  -0.0064   1.0000   0.1575
  -4.500  -0.5055   0.03094   0.02015  -0.0070   1.0000   0.1486
  -4.750  -0.5315   0.03369   0.02335  -0.0076   1.0000   0.1400
  -5.000  -0.5562   0.03708   0.02730  -0.0078   1.0000   0.1335
  -5.250  -0.5805   0.04138   0.03224  -0.0077   1.0000   0.1348
  -5.500  -0.6029   0.04594   0.03704  -0.0077   1.0000   0.1373
  -5.750  -0.6269   0.05432   0.04665  -0.0030   1.0000   0.1616
  -6.250  -0.6680   0.07903   0.07252   0.0407   1.0000   0.3703
  -6.500  -0.6745   0.08265   0.07610   0.0395   1.0000   0.3455
  -6.750  -0.6906   0.08692   0.08036   0.0355   1.0000   0.3216
  -6.500  -0.6745   0.08265   0.07610   0.0395   1.0000   0.3455
  -6.600  -0.6862   0.08473   0.07819   0.0364   1.0000   0.3358
  -6.700  -0.6839   0.08555   0.07900   0.0374   1.0000   0.3249
  -7.000  -0.6855   0.08979   0.08317   0.0381   1.0000   0.3013
  -7.250  -0.6888   0.09349   0.08687   0.0384   1.0000   0.2866
  -7.500  -0.6917   0.09729   0.09063   0.0385   1.0000   0.2747
  -7.750  -0.7028   0.10182   0.09515   0.0376   1.0000   0.2636
  -8.000  -0.7201   0.10700   0.10035   0.0355   1.0000   0.2507
  -8.250  -0.6967   0.10815   0.10135   0.0398   1.0000   0.2423
  -8.500  -0.7045   0.11264   0.10581   0.0396   1.0000   0.2344
  -8.750  -0.7229   0.11818   0.11138   0.0376   1.0000   0.2220
  -9.000  -0.7029   0.11933   0.11240   0.0417   1.0000   0.2164
  -9.250  -0.7156   0.12433   0.11740   0.0407   1.0000   0.2067
  -9.500  -0.7108   0.12678   0.11981   0.0425   1.0000   0.1977
  -9.750  -0.7151   0.13105   0.12404   0.0430   1.0000   0.1913
 -10.000  -0.7189   0.13450   0.12747   0.0436   1.0000   0.1824
 -10.250  -0.7250   0.13924   0.13219   0.0441   1.0000   0.1782
 -10.500  -0.7195   0.14149   0.13439   0.0464   1.0000   0.1719
 -10.750  -0.7438   0.14906   0.14205   0.0439   1.0000   0.1653
 -11.000  -0.7289   0.14960   0.14250   0.0480   1.0000   0.1626
 -11.250  -0.7306   0.15272   0.14559   0.0493   1.0000   0.1565
 -11.500  -0.7534   0.16058   0.15350   0.0473   1.0000   0.1512
 -11.750  -0.7410   0.16093   0.15376   0.0511   1.0000   0.1489
 -12.000  -0.7419   0.16371   0.15652   0.0529   1.0000   0.1435
 -12.250  -0.7687   0.17290   0.16577   0.0503   1.0000   0.1373
 -12.500  -0.7577   0.17285   0.16565   0.0541   1.0000   0.1360
 -12.750  -0.7558   0.17464   0.16740   0.0566   1.0000   0.1315
 -13.000  -0.7679   0.17956   0.17235   0.0564   1.0000   0.1253
 -13.250  -0.7764   0.18489   0.17766   0.0572   1.0000   0.1227
 -13.500  -0.7728   0.18565   0.17837   0.0604   1.0000   0.1197
 -13.750  -0.7783   0.18882   0.18153   0.0619   1.0000   0.1149
 -14.000  -0.7945   0.19556   0.18832   0.0611   1.0000   0.1106
 -14.250  -0.8018   0.20052   0.19329   0.0624   1.0000   0.1092
 -14.500  -0.7989   0.20051   0.19324   0.0659   1.0000   0.1075
 -14.750  -0.8029   0.20285   0.19556   0.0682   1.0000   0.1041
 -15.000  -0.8104   0.20635   0.19906   0.0696   1.0000   0.1006
 -15.250  -0.8232   0.21218   0.20493   0.0695   1.0000   0.0973
 -15.500  -0.8366   0.21992   0.21266   0.0699   1.0000   0.0957
 -15.750  -0.8351   0.21909   0.21179   0.0735   1.0000   0.0948
 -16.000  -0.8388   0.22042   0.21310   0.0764   1.0000   0.0924
 -16.250  -0.8457   0.22336   0.21604   0.0785   1.0000   0.0894
 -16.500  -0.8541   0.22697   0.21966   0.0799   1.0000   0.0864
 -16.750  -0.8685   0.23455   0.22729   0.0793   1.0000   0.0832
 -17.000  -0.8779   0.24044   0.23315   0.0807   1.0000   0.0821
 -17.250  -0.8791   0.23924   0.23192   0.0845   1.0000   0.0812
 -17.500  -0.8845   0.24047   0.23313   0.0875   1.0000   0.0789
 -17.750  -0.8921   0.24334   0.23601   0.0897   1.0000   0.0761
 -18.000  -0.9005   0.24676   0.23948   0.0914   1.0000   0.0735
 -18.250  -0.9100   0.25111   0.24385   0.0925   1.0000   0.0713
 -18.750  -0.9322   0.26519   0.25795   0.0940   1.0000   0.0689
 -19.000  -0.9357   0.26398   0.25671   0.0977   1.0000   0.0684
 -19.250  -0.9415   0.26441   0.25713   0.1010   1.0000   0.0673
 -19.500  -0.9490   0.26655   0.25928   0.1037   1.0000   0.0656
 -19.250  -0.9415   0.26441   0.25713   0.1010   1.0000   0.0673
 -19.350  -0.9444   0.26511   0.25784   0.1022   1.0000   0.0667
 -19.450  -0.9474   0.26604   0.25876   0.1032   1.0000   0.0659
 -19.750  -0.9571   0.26942   0.26215   0.1060   1.0000   0.0637
 -20.000  -0.9654   0.27254   0.26528   0.1081   1.0000   0.0619
