  
       XFOIL         Version 6.99
  
 Calculated polar for: FX 78-K-161                                     
  
 1 1 Reynolds number fixed          Mach number fixed         
  
 xtrf =   1.000 (top)        1.000 (bottom)  
 Mach =   0.000     Re =     0.050 e 6     Ncrit =   9.000
  
   alpha    CL        CD       CDp       CM     Top_Xtr  Bot_Xtr
  ------ -------- --------- --------- -------- -------- --------
   0.000  -0.1450   0.04716   0.03698  -0.0085   1.0000   1.0000
   0.250  -0.1367   0.04750   0.03720  -0.0067   1.0000   1.0000
   0.500  -0.1283   0.04787   0.03742  -0.0049   1.0000   1.0000
   0.750  -0.1201   0.04826   0.03770  -0.0031   1.0000   1.0000
   1.000  -0.1117   0.04866   0.03799  -0.0014   1.0000   1.0000
   1.250  -0.1034   0.04909   0.03834   0.0003   1.0000   1.0000
   1.500  -0.0951   0.04953   0.03867   0.0021   1.0000   1.0000
   1.750  -0.0869   0.04999   0.03905   0.0038   1.0000   1.0000
   2.000  -0.0786   0.05046   0.03945   0.0055   1.0000   1.0000
   2.250  -0.0705   0.05095   0.03986   0.0072   1.0000   1.0000
   2.500  -0.0625   0.05145   0.04031   0.0088   1.0000   1.0000
   2.750  -0.0545   0.05197   0.04077   0.0105   1.0000   1.0000
   2.750  -0.0545   0.05197   0.04077   0.0105   1.0000   1.0000
   2.850  -0.0513   0.05219   0.04095   0.0111   1.0000   1.0000
   2.950  -0.0314   0.05326   0.04200   0.0082   0.9944   1.0000
   3.250   0.0246   0.05609   0.04478   0.0006   0.9683   1.0000
   3.250   0.0246   0.05609   0.04478   0.0006   0.9683   1.0000
   3.350   0.0414   0.05736   0.04601  -0.0014   0.9624   1.0000
   3.750   0.0917   0.05979   0.04842  -0.0058   0.9256   1.0000
   4.000   0.1176   0.06136   0.04997  -0.0073   0.9073   1.0000
   4.250   0.1397   0.06284   0.05143  -0.0080   0.8908   1.0000
   4.500   0.1579   0.06415   0.05273  -0.0079   0.8757   1.0000
   4.750   0.1733   0.06542   0.05401  -0.0074   0.8620   1.0000
   5.000   0.1892   0.06689   0.05548  -0.0069   0.8502   1.0000
   5.250   0.2147   0.06925   0.05786  -0.0081   0.8399   1.0000
   5.500   0.2204   0.06977   0.05839  -0.0060   0.8277   1.0000
   5.500   0.2204   0.06977   0.05839  -0.0060   0.8277   1.0000
   5.600   0.2284   0.07078   0.05940  -0.0061   0.8250   1.0000
   5.700   0.2237   0.07036   0.05898  -0.0042   0.8188   1.0000
   6.000   0.2368   0.07191   0.06056  -0.0029   0.8077   1.0000
   6.250   0.2577   0.07418   0.06286  -0.0034   0.8004   1.0000
   6.500   0.2628   0.07491   0.06363  -0.0016   0.7906   1.0000
   6.750   0.2668   0.07585   0.06460   0.0002   0.7832   1.0000
   7.000   0.2910   0.07852   0.06732  -0.0008   0.7756   1.0000
   7.250   0.2879   0.07872   0.06755   0.0018   0.7670   1.0000
   7.250   0.2879   0.07872   0.06755   0.0018   0.7670   1.0000
   7.350   0.2966   0.07964   0.06851   0.0016   0.7639   1.0000
   7.450   0.3094   0.08114   0.07004   0.0006   0.7615   1.0000
   7.750   0.3116   0.08195   0.07090   0.0028   0.7508   1.0000
   8.000   0.3342   0.08496   0.07399   0.0017   0.7450   1.0000
   8.250   0.3371   0.08550   0.07459   0.0032   0.7345   1.0000
   8.500   0.3479   0.08750   0.07666   0.0035   0.7279   1.0000
   8.750   0.3664   0.08967   0.07895   0.0029   0.7178   1.0000
   9.000   0.3677   0.09077   0.08011   0.0042   0.7098   1.0000
   9.250   0.3986   0.09466   0.08414   0.0020   0.7010   1.0000
   9.500   0.3946   0.09490   0.08444   0.0038   0.6901   1.0000
   9.750   0.4043   0.09700   0.08665   0.0038   0.6816   1.0000
  10.000   0.4293   0.10034   0.09015   0.0023   0.6708   1.0000
  10.250   0.4432   0.10235   0.09229   0.0020   0.6576   1.0000
  10.500   0.4450   0.10362   0.09366   0.0028   0.6456   1.0000
  10.750   0.4533   0.10565   0.09580   0.0028   0.6328   1.0000
  11.000   0.4636   0.10791   0.09818   0.0026   0.6197   1.0000
  11.250   0.4778   0.11021   0.10065   0.0022   0.6038   1.0000
  11.500   0.5093   0.11340   0.10404   0.0008   0.5829   1.0000
  11.750   0.5891   0.10665   0.09767   0.0044   0.4905   1.0000
  12.000   0.5993   0.10750   0.09868   0.0053   0.4668   1.0000
  12.250   0.6301   0.10714   0.09857   0.0064   0.4399   1.0000
  12.500   0.7521   0.09112   0.08344   0.0136   0.3848   1.0000
  12.750   0.8369   0.06527   0.05568   0.0326   0.1505   1.0000
  13.000   0.8437   0.06716   0.05725   0.0343   0.1288   1.0000
  13.250   0.8742   0.06704   0.05675   0.0368   0.1104   1.0000
  13.500   0.9261   0.06650   0.05625   0.0386   0.0951   1.0000
  13.750   0.9786   0.06737   0.05738   0.0393   0.0885   1.0000
  14.000   1.0549   0.07025   0.06040   0.0384   0.0840   1.0000
  14.250   1.0553   0.07376   0.06429   0.0395   0.0834   1.0000
  14.500   1.0611   0.07738   0.06820   0.0400   0.0836   1.0000
  14.750   1.0498   0.08139   0.07252   0.0409   0.0835   1.0000
  15.000   1.0432   0.08562   0.07700   0.0413   0.0838   1.0000
  15.250   1.0298   0.09018   0.08180   0.0416   0.0840   1.0000
  15.500   1.0028   0.09500   0.08688   0.0414   0.0839   1.0000
  15.750   0.9302   0.10292   0.09532   0.0388   0.0877   1.0000
  16.000   0.8707   0.11389   0.10652   0.0337   0.0902   1.0000
  16.250   0.8292   0.12483   0.11757   0.0280   0.0932   1.0000
  16.500   0.8016   0.13520   0.12797   0.0229   0.0954   1.0000
  16.750   0.7939   0.14259   0.13535   0.0199   0.0968   1.0000
  17.000   0.4925   0.15676   0.15009   0.0064   0.1796   1.0000
  17.250   0.6799   0.19257   0.18497  -0.0111   0.2270   1.0000
  17.500   0.6768   0.19564   0.18801  -0.0135   0.2249   1.0000
  17.750   0.6792   0.19900   0.19136  -0.0155   0.2216   1.0000
  18.000   0.6871   0.20262   0.19498  -0.0170   0.2180   1.0000
  18.250   0.7006   0.20726   0.19965  -0.0179   0.2151   1.0000
  18.500   0.7189   0.21399   0.20640  -0.0187   0.2131   1.0000
  18.750   0.7048   0.21343   0.20577  -0.0222   0.2084   1.0000
  19.000   0.7125   0.21661   0.20895  -0.0238   0.2032   1.0000
  19.250   0.7330   0.22257   0.21498  -0.0240   0.1990   1.0000
  19.500   0.7315   0.22467   0.21702  -0.0267   0.1963   1.0000
  19.750   0.7341   0.22657   0.21890  -0.0288   0.1880   1.0000
  20.000   0.7574   0.23347   0.22591  -0.0286   0.1836   1.0000
   0.000  -0.1450   0.04716   0.03698  -0.0085   1.0000   1.0000
  -0.250  -0.1532   0.04684   0.03679  -0.0103   1.0000   1.0000
  -0.500  -0.1614   0.04655   0.03665  -0.0122   1.0000   1.0000
  -0.750  -0.1695   0.04627   0.03653  -0.0140   1.0000   1.0000
  -1.000  -0.1774   0.04603   0.03645  -0.0159   1.0000   1.0000
  -1.250  -0.1852   0.04581   0.03641  -0.0178   1.0000   1.0000
  -1.500  -0.1928   0.04563   0.03641  -0.0197   1.0000   1.0000
  -1.750  -0.2002   0.04547   0.03647  -0.0216   1.0000   1.0000
  -2.000  -0.2074   0.04536   0.03658  -0.0236   1.0000   1.0000
  -2.250  -0.2143   0.04529   0.03674  -0.0255   1.0000   1.0000
  -2.500  -0.2207   0.04527   0.03698  -0.0275   1.0000   1.0000
  -2.750  -0.2268   0.04530   0.03728  -0.0296   1.0000   1.0000
  -2.750  -0.2268   0.04530   0.03728  -0.0296   1.0000   1.0000
  -2.850  -0.2291   0.04533   0.03743  -0.0304   1.0000   1.0000
  -3.250  -0.6265   0.04025   0.02933   0.0180   1.0000   0.1615
  -3.500  -0.6472   0.04137   0.03055   0.0172   1.0000   0.1548
  -3.750  -0.6669   0.04286   0.03226   0.0162   1.0000   0.1497
  -4.000  -0.6861   0.04435   0.03417   0.0149   1.0000   0.1477
  -4.250  -0.7043   0.04620   0.03643   0.0134   1.0000   0.1470
  -4.500  -0.7209   0.04825   0.03890   0.0118   1.0000   0.1468
  -4.750  -0.7355   0.05050   0.04160   0.0100   1.0000   0.1464
  -5.000  -0.7478   0.05293   0.04450   0.0080   1.0000   0.1457
  -5.250  -0.7589   0.05580   0.04778   0.0060   1.0000   0.1477
  -5.500  -0.7708   0.05905   0.05121   0.0044   1.0000   0.1508
  -5.750  -0.7730   0.06333   0.05642   0.0014   1.0000   0.1637
  -6.000  -0.7741   0.06838   0.06206  -0.0008   1.0000   0.1804
  -6.000  -0.7741   0.06838   0.06206  -0.0008   1.0000   0.1804
  -6.100  -0.7798   0.07002   0.06365  -0.0012   1.0000   0.1828
  -6.950  -0.4627   0.10227   0.09706   0.0085   1.0000   0.5036
  -7.100  -0.4588   0.10349   0.09826   0.0066   1.0000   0.4910
  -7.200  -0.4640   0.10463   0.09942   0.0062   1.0000   0.4861
  -7.750  -0.3952   0.11163   0.10683  -0.0028   1.0000   0.4150
  -8.000  -0.3980   0.11399   0.10919  -0.0047   1.0000   0.3990
  -8.250  -0.4002   0.11634   0.11153  -0.0066   1.0000   0.3826
  -8.250  -0.4002   0.11634   0.11153  -0.0066   1.0000   0.3826
  -8.350  -0.3733   0.11641   0.11153  -0.0077   1.0000   0.3776
  -8.450  -0.3776   0.11718   0.11231  -0.0085   1.0000   0.3700
  -8.750  -0.3729   0.11975   0.11486  -0.0105   1.0000   0.3537
  -9.000  -0.3641   0.12190   0.11697  -0.0120   1.0000   0.3417
  -9.250  -0.3809   0.12517   0.12026  -0.0133   1.0000   0.3323
  -9.500  -0.3640   0.12635   0.12139  -0.0148   1.0000   0.3197
  -9.750  -0.3542   0.12845   0.12346  -0.0160   1.0000   0.3114
 -10.000  -0.3816   0.13246   0.12752  -0.0177   1.0000   0.2996
 -10.250  -0.3446   0.13231   0.12729  -0.0184   1.0000   0.2916
 -10.500  -0.3548   0.13535   0.13033  -0.0199   1.0000   0.2816
 -10.750  -0.3395   0.13612   0.13106  -0.0208   1.0000   0.2720
 -11.000  -0.3420   0.13872   0.13365  -0.0220   1.0000   0.2643
 -11.250  -0.3340   0.13981   0.13472  -0.0230   1.0000   0.2542
 -11.500  -0.3408   0.14304   0.13794  -0.0243   1.0000   0.2487
 -11.750  -0.3216   0.14297   0.13784  -0.0247   1.0000   0.2408
 -12.000  -0.3489   0.14845   0.14335  -0.0268   1.0000   0.2332
 -12.250  -0.3162   0.14658   0.14140  -0.0266   1.0000   0.2293
 -12.500  -0.3128   0.14778   0.14260  -0.0276   1.0000   0.2214
 -12.750  -0.3244   0.15181   0.14662  -0.0291   1.0000   0.2162
 -13.000  -0.3009   0.15003   0.14480  -0.0290   1.0000   0.2104
 -13.250  -0.3084   0.15261   0.14740  -0.0307   1.0000   0.2025
 -13.500  -0.3055   0.15456   0.14932  -0.0314   1.0000   0.1992
 -13.750  -0.2884   0.15310   0.14784  -0.0314   1.0000   0.1935
 -14.000  -0.2896   0.15466   0.14940  -0.0328   1.0000   0.1874
 -14.250  -0.3045   0.16019   0.15491  -0.0348   1.0000   0.1837
 -14.500  -0.2801   0.15670   0.15139  -0.0343   1.0000   0.1811
 -14.750  -0.2715   0.15642   0.15110  -0.0349   1.0000   0.1759
 -15.000  -0.2730   0.15790   0.15257  -0.0366   1.0000   0.1707
 -15.250  -0.2814   0.16221   0.15685  -0.0387   1.0000   0.1674
 -15.500  -0.2617   0.15901   0.15362  -0.0386   1.0000   0.1653
 -15.750  -0.2523   0.15813   0.15271  -0.0394   1.0000   0.1602
 -16.000  -0.2508   0.15873   0.15330  -0.0411   1.0000   0.1554
 -16.250  -0.2680   0.16546   0.15999  -0.0436   1.0000   0.1515
 -16.500  -0.2501   0.16161   0.15611  -0.0428   1.0000   0.1504
 -16.750  -0.2423   0.16042   0.15489  -0.0418   1.0000   0.1469
 -17.000  -0.2443   0.16162   0.15610  -0.0411   1.0000   0.1421
 -17.250  -0.2550   0.16500   0.15949  -0.0405   1.0000   0.1378
 -17.500  -0.2717   0.17170   0.16617  -0.0396   1.0000   0.1352
 -17.750  -0.2612   0.16884   0.16330  -0.0373   1.0000   0.1334
 -18.000  -0.2622   0.16951   0.16398  -0.0354   1.0000   0.1292
 -18.250  -0.2697   0.17193   0.16641  -0.0338   1.0000   0.1246
 -18.500  -0.2997   0.18322   0.17771  -0.0333   1.0000   0.1199
 -18.750  -0.2901   0.17993   0.17442  -0.0307   1.0000   0.1191
 -19.000  -0.2879   0.17931   0.17380  -0.0282   1.0000   0.1165
 -19.250  -0.2928   0.18115   0.17565  -0.0261   1.0000   0.1128
 -19.500  -0.3008   0.18387   0.17839  -0.0243   1.0000   0.1093
 -19.750  -0.3138   0.18844   0.18298  -0.0228   1.0000   0.1062
 -20.000  -0.3323   0.19694   0.19147  -0.0214   1.0000   0.1044
