  
       XFOIL         Version 6.99
  
 Calculated polar for: Coanda 3                                        
  
 1 1 Reynolds number fixed          Mach number fixed         
  
 xtrf =   1.000 (top)        1.000 (bottom)  
 Mach =   0.000     Re =     0.050 e 6     Ncrit =   9.000
  
   alpha    CL        CD       CDp       CM     Top_Xtr  Bot_Xtr
  ------ -------- --------- --------- -------- -------- --------
   0.000   0.0885   0.02057   0.01093  -0.0177   1.0000   1.0000
   0.250   0.1080   0.02101   0.01085  -0.0164   1.0000   1.0000
   0.500   0.1257   0.02147   0.01099  -0.0151   1.0000   1.0000
   0.750   0.1427   0.02196   0.01127  -0.0139   1.0000   1.0000
   1.000   0.1594   0.02249   0.01165  -0.0128   1.0000   1.0000
   1.250   0.1758   0.02306   0.01211  -0.0118   1.0000   1.0000
   1.500   0.1919   0.02369   0.01266  -0.0110   1.0000   1.0000
   1.750   0.2077   0.02436   0.01330  -0.0102   1.0000   1.0000
   2.000   0.2230   0.02512   0.01403  -0.0095   1.0000   1.0000
   2.250   0.2839   0.02659   0.01556  -0.0178   0.9795   1.0000
   2.500   0.3538   0.02772   0.01682  -0.0272   0.9499   1.0000
   2.750   0.4286   0.02831   0.01767  -0.0364   0.9176   1.0000
   3.000   0.4990   0.02812   0.01777  -0.0436   0.8801   1.0000
   3.250   0.5771   0.02695   0.01708  -0.0505   0.8390   1.0000
   3.500   0.6658   0.02457   0.01521  -0.0576   0.7942   1.0000
   3.750   0.7344   0.02244   0.01349  -0.0605   0.7360   1.0000
   4.000   0.7834   0.02169   0.01273  -0.0610   0.6661   1.0000
   4.250   0.8134   0.02206   0.01298  -0.0596   0.6065   1.0000
   4.500   0.8404   0.02268   0.01349  -0.0583   0.5598   1.0000
   4.750   0.8550   0.02309   0.01372  -0.0546   0.5093   1.0000
   5.000   0.8652   0.02348   0.01389  -0.0503   0.4578   1.0000
   5.250   0.8845   0.02424   0.01461  -0.0482   0.4229   1.0000
   5.500   0.8978   0.02491   0.01527  -0.0451   0.3860   1.0000
   5.750   0.9085   0.02549   0.01585  -0.0416   0.3495   1.0000
   6.000   0.9081   0.02591   0.01622  -0.0364   0.3007   1.0000
   6.250   0.9054   0.02646   0.01664  -0.0309   0.2297   1.0000
   6.500   0.9085   0.02844   0.01790  -0.0269   0.1320   1.0000
   6.750   0.9216   0.03069   0.01980  -0.0243   0.0995   1.0000
   7.000   0.9379   0.03270   0.02179  -0.0221   0.0882   1.0000
   7.250   0.9584   0.03500   0.02408  -0.0205   0.0809   1.0000
   7.500   0.9826   0.03728   0.02666  -0.0193   0.0745   1.0000
   7.750   1.0076   0.04029   0.02970  -0.0187   0.0695   1.0000
   8.000   1.0313   0.04350   0.03338  -0.0175   0.0681   1.0000
   8.250   1.0486   0.04715   0.03751  -0.0158   0.0679   1.0000
   8.500   1.0594   0.05102   0.04184  -0.0134   0.0683   1.0000
   8.750   1.0648   0.05512   0.04637  -0.0108   0.0689   1.0000
   9.000   1.0673   0.05931   0.05089  -0.0083   0.0697   1.0000
   9.250   1.0691   0.06401   0.05584  -0.0061   0.0705   1.0000
   9.500   1.0529   0.06711   0.05949  -0.0020   0.0717   1.0000
   9.750   1.0217   0.07080   0.06360   0.0022   0.0730   1.0000
  10.000   0.9916   0.07481   0.06785   0.0051   0.0739   1.0000
  10.250   0.9613   0.07960   0.07282   0.0057   0.0749   1.0000
  10.500   0.9296   0.08576   0.07909   0.0038   0.0757   1.0000
  10.750   0.8998   0.09332   0.08670  -0.0007   0.0770   1.0000
  11.000   0.8735   0.10257   0.09594  -0.0067   0.0789   1.0000
  11.250   0.8605   0.11063   0.10394  -0.0108   0.0809   1.0000
  11.500   0.8616   0.11569   0.10899  -0.0115   0.0825   1.0000
  11.500   0.8616   0.11569   0.10898  -0.0115   0.0825   1.0000
  11.600   0.8341   0.12448   0.11767  -0.0192   0.0862   1.0000
  11.700   0.8252   0.12859   0.12171  -0.0218   0.0889   1.0000
  12.000   0.8219   0.13603   0.12908  -0.0243   0.0932   1.0000
  12.250   0.8092   0.14449   0.13738  -0.0293   0.1032   1.0000
  12.500   0.6748   0.14245   0.13588  -0.0206   0.1206   1.0000
  12.750   0.6245   0.15124   0.14465  -0.0304   0.1946   1.0000
  13.000   0.6226   0.15440   0.14782  -0.0316   0.1959   1.0000
  13.250   0.6215   0.15731   0.15073  -0.0327   0.1947   1.0000
  13.500   0.6225   0.16033   0.15376  -0.0336   0.1927   1.0000
  13.750   0.6321   0.16458   0.15804  -0.0339   0.1893   1.0000
  14.000   0.6363   0.16859   0.16205  -0.0347   0.1871   1.0000
  14.250   0.6258   0.16925   0.16269  -0.0366   0.1840   1.0000
  14.500   0.6292   0.17205   0.16551  -0.0373   0.1779   1.0000
  14.750   0.6451   0.17819   0.17167  -0.0373   0.1740   1.0000
  15.000   0.6332   0.17811   0.17158  -0.0394   0.1715   1.0000
  15.250   0.6335   0.18040   0.17388  -0.0407   0.1665   1.0000
  15.500   0.6420   0.18438   0.17788  -0.0411   0.1628   1.0000
  15.750   0.6549   0.19054   0.18412  -0.0414   0.1606   1.0000
  16.000   0.6442   0.19006   0.18357  -0.0437   0.1585   1.0000
  16.250   0.6441   0.19218   0.18575  -0.0452   0.1542   1.0000
  16.500   0.6505   0.19568   0.18928  -0.0459   0.1502   1.0000
  16.750   0.6695   0.20379   0.19742  -0.0456   0.1473   1.0000
  17.000   0.6589   0.20272   0.19634  -0.0481   0.1460   1.0000
  17.250   0.6569   0.20422   0.19784  -0.0499   0.1422   1.0000
  17.500   0.6613   0.20729   0.20093  -0.0510   0.1383   1.0000
  17.750   0.6737   0.21290   0.20658  -0.0511   0.1349   1.0000
  18.000   0.6762   0.21634   0.21001  -0.0524   0.1335   1.0000
  18.250   0.6718   0.21679   0.21047  -0.0547   0.1311   1.0000
  18.500   0.6742   0.21939   0.21308  -0.0561   0.1270   1.0000
  18.750   0.6824   0.22358   0.21731  -0.0566   0.1227   1.0000
  19.000   0.6913   0.22923   0.22296  -0.0573   0.1206   1.0000
  19.250   0.6863   0.22927   0.22300  -0.0597   0.1184   1.0000
  19.500   0.6886   0.23179   0.22555  -0.0612   0.1145   1.0000
  19.750   0.6956   0.23574   0.22953  -0.0619   0.1102   1.0000
  20.000   0.7072   0.24269   0.23649  -0.0622   0.1079   1.0000
   0.000   0.0885   0.02057   0.01093  -0.0177   1.0000   1.0000
  -0.250   0.0159   0.02290   0.01102  -0.0087   1.0000   0.3226
  -0.500  -0.0066   0.02312   0.01115  -0.0092   1.0000   0.3024
  -0.750  -0.0305   0.02338   0.01138  -0.0095   1.0000   0.2865
  -1.000  -0.0569   0.02371   0.01176  -0.0095   1.0000   0.2792
  -1.250  -0.0844   0.02398   0.01224  -0.0093   1.0000   0.2734
  -1.500  -0.1135   0.02436   0.01282  -0.0089   1.0000   0.2697
  -1.750  -0.1409   0.02483   0.01351  -0.0089   1.0000   0.2675
  -2.000  -0.1653   0.02539   0.01430  -0.0095   1.0000   0.2667
  -2.250  -0.1885   0.02591   0.01520  -0.0102   1.0000   0.2614
  -2.500  -0.2084   0.02641   0.01580  -0.0113   1.0000   0.2417
  -2.750  -0.2277   0.02693   0.01645  -0.0124   1.0000   0.2191
  -3.000  -0.2489   0.02780   0.01762  -0.0136   1.0000   0.2018
  -3.250  -0.2664   0.02904   0.01900  -0.0153   1.0000   0.1611
  -3.500  -0.2852   0.03153   0.02172  -0.0170   1.0000   0.1254
  -3.750  -0.3052   0.03426   0.02494  -0.0187   1.0000   0.1127
  -4.000  -0.3258   0.03751   0.02894  -0.0203   1.0000   0.1086
  -4.250  -0.3443   0.04097   0.03291  -0.0217   1.0000   0.1084
  -4.500  -0.3610   0.04457   0.03684  -0.0230   1.0000   0.1113
  -4.500  -0.3610   0.04457   0.03684  -0.0230   1.0000   0.1113
  -4.600  -0.3670   0.04603   0.03836  -0.0235   1.0000   0.1126
  -4.700  -0.3729   0.04756   0.03988  -0.0242   1.0000   0.1142
  -4.750  -0.3872   0.05190   0.04483  -0.0222   1.0000   0.1683
  -5.250  -0.4405   0.06239   0.05652  -0.0096   1.0000   0.2828
  -5.500  -0.4431   0.06514   0.05924  -0.0123   1.0000   0.2554
  -5.750  -0.4455   0.06813   0.06219  -0.0143   1.0000   0.2346
  -6.000  -0.4477   0.07084   0.06489  -0.0158   1.0000   0.2150
  -6.250  -0.4495   0.07376   0.06779  -0.0169   1.0000   0.2014
  -6.500  -0.4503   0.07683   0.07082  -0.0177   1.0000   0.1911
  -6.750  -0.4602   0.08095   0.07487  -0.0215   1.0000   0.1827
  -7.000  -0.4495   0.08276   0.07666  -0.0186   1.0000   0.1760
  -7.250  -0.4574   0.08656   0.08042  -0.0212   1.0000   0.1698
  -7.500  -0.4534   0.08959   0.08337  -0.0207   1.0000   0.1671
  -7.750  -0.4425   0.09151   0.08520  -0.0193   1.0000   0.1618
  -8.000  -0.4492   0.09517   0.08882  -0.0210   1.0000   0.1566
  -8.250  -0.4548   0.09957   0.09315  -0.0222   1.0000   0.1543
  -8.500  -0.4351   0.10047   0.09389  -0.0214   1.0000   0.1528
  -8.750  -0.4252   0.10230   0.09559  -0.0209   1.0000   0.1490
  -9.000  -0.4273   0.10531   0.09854  -0.0212   1.0000   0.1449
  -9.250  -0.4514   0.11231   0.10558  -0.0237   1.0000   0.1411
  -9.500  -0.4372   0.11312   0.10625  -0.0220   1.0000   0.1404
  -9.750  -0.4261   0.11437   0.10737  -0.0203   1.0000   0.1377
 -10.000  -0.4257   0.11700   0.10993  -0.0197   1.0000   0.1342
 -10.250  -0.4309   0.12045   0.11335  -0.0198   1.0000   0.1308
 -10.500  -0.4580   0.12881   0.12184  -0.0225   1.0000   0.1276
 -10.750  -0.4459   0.12928   0.12218  -0.0202   1.0000   0.1270
 -11.000  -0.4380   0.13024   0.12304  -0.0182   1.0000   0.1253
 -11.250  -0.4374   0.13253   0.12527  -0.0170   1.0000   0.1226
 -11.500  -0.4404   0.13566   0.12835  -0.0164   1.0000   0.1194
 -11.750  -0.4471   0.13920   0.13188  -0.0163   1.0000   0.1170
 -12.000  -0.4749   0.14913   0.14185  -0.0187   1.0000   0.1139
 -12.250  -0.4670   0.14946   0.14210  -0.0165   1.0000   0.1135
 -12.500  -0.4616   0.15018   0.14275  -0.0145   1.0000   0.1126
 -12.750  -0.4598   0.15169   0.14419  -0.0128   1.0000   0.1102
 -13.000  -0.4632   0.15438   0.14685  -0.0118   1.0000   0.1077
 -13.250  -0.4688   0.15770   0.15015  -0.0112   1.0000   0.1047
 -13.500  -0.4810   0.16289   0.15535  -0.0115   1.0000   0.1016
 -13.750  -0.4966   0.17047   0.16291  -0.0118   1.0000   0.0999
 -14.000  -0.4911   0.17023   0.16261  -0.0096   1.0000   0.0993
 -14.250  -0.4913   0.17143   0.16376  -0.0079   1.0000   0.0984
 -14.500  -0.4936   0.17329   0.16559  -0.0063   1.0000   0.0960
 -14.750  -0.4987   0.17611   0.16838  -0.0052   1.0000   0.0935
 -15.000  -0.5051   0.17931   0.17157  -0.0043   1.0000   0.0913
 -15.250  -0.5132   0.18304   0.17529  -0.0037   1.0000   0.0893
 -15.500  -0.5263   0.18931   0.18158  -0.0037   1.0000   0.0874
 -15.750  -0.5432   0.19841   0.19074  -0.0038   1.0000   0.0863
 -16.000  -0.5409   0.19779   0.19007  -0.0016   1.0000   0.0860
 -16.250  -0.5410   0.19769   0.18993   0.0005   1.0000   0.0854
 -16.500  -0.5436   0.19860   0.19080   0.0025   1.0000   0.0840
 -16.750  -0.5492   0.20085   0.19303   0.0041   1.0000   0.0822
 -17.000  -0.5558   0.20359   0.19575   0.0054   1.0000   0.0803
 -17.250  -0.5631   0.20666   0.19881   0.0067   1.0000   0.0783
 -17.500  -0.5712   0.21023   0.20238   0.0076   1.0000   0.0763
 -17.750  -0.5816   0.21520   0.20735   0.0082   1.0000   0.0746
 -17.750  -0.5816   0.21520   0.20735   0.0082   1.0000   0.0746
 -17.850  -0.5871   0.21819   0.21036   0.0082   1.0000   0.0740
 -18.250  -0.6027   0.22731   0.21945   0.0098   1.0000   0.0729
 -18.500  -0.6040   0.22619   0.21828   0.0123   1.0000   0.0725
 -18.750  -0.6078   0.22630   0.21836   0.0146   1.0000   0.0716
 -19.000  -0.6140   0.22802   0.22006   0.0165   1.0000   0.0703
 -19.250  -0.6210   0.23045   0.22248   0.0182   1.0000   0.0684
 -19.500  -0.6286   0.23315   0.22518   0.0198   1.0000   0.0670
 -19.750  -0.6365   0.23617   0.22819   0.0212   1.0000   0.0652
 -20.000  -0.6447   0.23940   0.23142   0.0225   1.0000   0.0637
