  
       XFOIL         Version 6.99
  
 Calculated polar for: MRC-16                                          
  
 1 1 Reynolds number fixed          Mach number fixed         
  
 xtrf =   1.000 (top)        1.000 (bottom)  
 Mach =   0.000     Re =     0.050 e 6     Ncrit =   9.000
  
   alpha    CL        CD       CDp       CM     Top_Xtr  Bot_Xtr
  ------ -------- --------- --------- -------- -------- --------
   0.000   0.0326   0.03506   0.02519  -0.0403   0.9217   1.0000
   0.250   0.0691   0.03604   0.02595  -0.0431   0.9105   1.0000
   0.500   0.0913   0.03680   0.02656  -0.0434   0.8987   1.0000
   0.750   0.1193   0.03770   0.02730  -0.0447   0.8872   1.0000
   1.000   0.1552   0.03870   0.02815  -0.0471   0.8763   1.0000
   1.250   0.1822   0.03958   0.02890  -0.0481   0.8646   1.0000
   1.500   0.2026   0.04047   0.02971  -0.0481   0.8528   1.0000
   1.750   0.2301   0.04143   0.03057  -0.0491   0.8413   1.0000
   2.000   0.2691   0.04241   0.03145  -0.0517   0.8306   1.0000
   2.250   0.2862   0.04334   0.03232  -0.0511   0.8183   1.0000
   2.500   0.3050   0.04437   0.03330  -0.0508   0.8065   1.0000
   2.750   0.3316   0.04537   0.03425  -0.0515   0.7950   1.0000
   3.000   0.3720   0.04624   0.03509  -0.0539   0.7843   1.0000
   3.250   0.3832   0.04737   0.03619  -0.0526   0.7717   1.0000
   3.500   0.3998   0.04855   0.03735  -0.0521   0.7597   1.0000
   3.750   0.4241   0.04962   0.03842  -0.0524   0.7480   1.0000
   4.000   0.4636   0.05038   0.03917  -0.0542   0.7372   1.0000
   4.250   0.4746   0.05170   0.04050  -0.0530   0.7245   1.0000
   4.500   0.4879   0.05307   0.04189  -0.0522   0.7121   1.0000
   4.750   0.5079   0.05430   0.04315  -0.0519   0.7001   1.0000
   5.000   0.5386   0.05519   0.04407  -0.0526   0.6886   1.0000
   5.250   0.5629   0.05624   0.04516  -0.0526   0.6767   1.0000
   5.500   0.5713   0.05791   0.04687  -0.0514   0.6637   1.0000
   5.750   0.5844   0.05950   0.04851  -0.0506   0.6514   1.0000
   6.000   0.6056   0.06073   0.04979  -0.0504   0.6392   1.0000
   6.250   0.6460   0.06104   0.05020  -0.0512   0.6283   1.0000
   6.500   0.6525   0.06294   0.05216  -0.0500   0.6150   1.0000
   6.750   0.6567   0.06513   0.05440  -0.0488   0.6021   1.0000
   7.000   0.6683   0.06694   0.05627  -0.0480   0.5895   1.0000
   7.250   0.6875   0.06835   0.05776  -0.0475   0.5773   1.0000
   7.500   0.7255   0.06847   0.05802  -0.0476   0.5657   1.0000
   7.750   0.7309   0.07072   0.06034  -0.0466   0.5526   1.0000
   8.000   0.7287   0.07365   0.06333  -0.0455   0.5398   1.0000
   8.250   0.7356   0.07597   0.06573  -0.0447   0.5272   1.0000
   8.500   0.7510   0.07774   0.06761  -0.0441   0.5152   1.0000
   8.750   0.7801   0.07827   0.06827  -0.0434   0.5027   1.0000
   9.000   0.7935   0.08009   0.07020  -0.0427   0.4903   1.0000
   9.250   0.7809   0.08431   0.07446  -0.0421   0.4779   1.0000
   9.500   0.7828   0.08734   0.07756  -0.0415   0.4660   1.0000
   9.750   0.7980   0.08919   0.07954  -0.0408   0.4540   1.0000
  10.000   0.8246   0.08976   0.08026  -0.0398   0.4411   1.0000
  10.250   0.8217   0.09340   0.08398  -0.0395   0.4295   1.0000
  10.500   0.8061   0.09848   0.08909  -0.0397   0.4190   1.0000
  10.750   0.8163   0.10092   0.09163  -0.0392   0.4073   1.0000
  11.000   0.8370   0.10213   0.09298  -0.0381   0.3945   1.0000
  11.250   0.8637   0.10236   0.09340  -0.0367   0.3808   1.0000
  11.500   0.8188   0.11157   0.10254  -0.0390   0.3751   1.0000
  11.750   0.8324   0.11361   0.10471  -0.0383   0.3626   1.0000
  12.000   1.2800   0.05439   0.04654  -0.0202   0.2921   1.0000
  12.250   1.2125   0.06236   0.05475  -0.0160   0.2937   1.0000
  12.500   1.1532   0.07163   0.06409  -0.0151   0.2917   1.0000
  12.500   1.1718   0.06917   0.06163  -0.0145   0.2880   1.0000
  12.600   1.1347   0.07518   0.06763  -0.0151   0.2895   1.0000
  13.000   0.8666   0.12825   0.11987  -0.0371   0.3057   1.0000
  12.750   1.2802   0.05885   0.05106  -0.0118   0.2405   1.0000
  12.850   1.2967   0.05811   0.05017  -0.0112   0.2280   1.0000
  12.950   1.2830   0.05997   0.05216  -0.0099   0.2261   1.0000
  13.250   1.1867   0.07320   0.06584  -0.0088   0.2383   1.0000
  13.500   1.1504   0.08072   0.07345  -0.0092   0.2337   1.0000
  13.750   1.1058   0.09080   0.08355  -0.0114   0.2311   1.0000
  14.000   1.1821   0.08080   0.07356  -0.0050   0.1974   1.0000
  14.250   1.1248   0.09262   0.08547  -0.0082   0.2011   1.0000
  14.750   1.1412   0.09537   0.08830  -0.0056   0.1738   1.0000
  14.750   1.1412   0.09537   0.08830  -0.0055   0.1738   1.0000
  16.000   0.8097   0.19139   0.18343  -0.0627   0.2993   1.0000
  15.750   0.8263   0.19056   0.18265  -0.0601   0.3051   1.0000
  15.850   0.8182   0.19085   0.18292  -0.0612   0.3042   1.0000
  15.950   0.8106   0.19102   0.18307  -0.0624   0.3016   1.0000
  16.250   0.8285   0.19670   0.18884  -0.0629   0.2893   1.0000
  16.000   0.8097   0.19139   0.18343  -0.0627   0.2993   1.0000
  16.100   0.8150   0.19281   0.18489  -0.0629   0.2944   1.0000
  16.200   0.8327   0.19667   0.18883  -0.0623   0.2898   1.0000
  16.500   0.8273   0.19858   0.19074  -0.0646   0.2786   1.0000
  16.250   0.8285   0.19669   0.18884  -0.0629   0.2893   1.0000
  16.350   0.8210   0.19669   0.18881  -0.0642   0.2866   1.0000
  16.450   0.8220   0.19759   0.18972  -0.0647   0.2813   1.0000
  16.750   0.8333   0.20272   0.19492  -0.0660   0.2726   1.0000
  17.000   0.8573   0.20900   0.20131  -0.0656   0.2602   1.0000
  17.250   0.8430   0.20913   0.20138  -0.0690   0.2551   1.0000
  17.500   0.8666   0.21573   0.20810  -0.0686   0.2452   1.0000
  17.750   0.8563   0.21598   0.20830  -0.0719   0.2386   1.0000
  18.000   0.8813   0.22339   0.21582  -0.0713   0.2306   1.0000
  18.250   0.8702   0.22309   0.21547  -0.0751   0.2250   1.0000
  18.500   0.8989   0.23164   0.22413  -0.0738   0.2162   1.0000
  18.750   0.8858   0.23046   0.22288  -0.0782   0.2126   1.0000
  19.000   0.8981   0.23434   0.22682  -0.0789   0.2039   1.0000
  19.250   0.9044   0.23835   0.23083  -0.0809   0.2001   1.0000
  19.500   0.9066   0.24024   0.23271  -0.0835   0.1932   1.0000
  19.750   0.9328   0.24948   0.24207  -0.0822   0.1874   1.0000
  20.000   0.9220   0.24748   0.24000  -0.0871   0.1838   1.0000
   0.000   0.0326   0.03506   0.02519  -0.0403   0.9217   1.0000
  -0.250  -0.0023   0.03410   0.02447  -0.0377   0.9328   1.0000
  -0.500  -0.0324   0.03326   0.02386  -0.0359   0.9442   1.0000
  -1.000  -0.1023   0.03148   0.02269  -0.0302   0.9667   1.0000
  -1.250  -0.1410   0.03052   0.02212  -0.0266   0.9778   1.0000
  -1.500  -0.1806   0.02959   0.02164  -0.0226   0.9888   1.0000
  -1.750  -0.2251   0.02863   0.02125  -0.0175   1.0000   1.0000
  -2.000  -0.2326   0.02855   0.02157  -0.0191   1.0000   1.0000
  -2.250  -0.2943   0.03048   0.02047  -0.0197   1.0000   0.3003
  -2.500  -0.3193   0.03159   0.02108  -0.0197   1.0000   0.2328
  -2.750  -0.3428   0.03240   0.02177  -0.0202   1.0000   0.2020
  -3.000  -0.3653   0.03334   0.02257  -0.0207   1.0000   0.1828
  -3.250  -0.3875   0.03426   0.02359  -0.0213   1.0000   0.1683
  -3.500  -0.4104   0.03544   0.02506  -0.0218   1.0000   0.1588
  -3.750  -0.4316   0.03690   0.02648  -0.0223   1.0000   0.1506
  -3.500  -0.4104   0.03544   0.02506  -0.0218   1.0000   0.1588
  -3.600  -0.4190   0.03591   0.02556  -0.0220   1.0000   0.1554
  -3.700  -0.4272   0.03650   0.02609  -0.0222   1.0000   0.1521
  -4.000  -0.4540   0.03834   0.02848  -0.0229   1.0000   0.1447
  -4.250  -0.4757   0.04023   0.03078  -0.0234   1.0000   0.1418
  -4.500  -0.4954   0.04212   0.03285  -0.0240   1.0000   0.1379
  -4.750  -0.5142   0.04465   0.03559  -0.0245   1.0000   0.1351
  -5.000  -0.5327   0.04754   0.03886  -0.0251   1.0000   0.1356
  -5.250  -0.5484   0.05185   0.04437  -0.0251   1.0000   0.1442
  -5.500  -0.5610   0.05562   0.04845  -0.0256   1.0000   0.1484
  -5.750  -0.5734   0.05915   0.05209  -0.0265   1.0000   0.1515
  -6.000  -0.5736   0.06891   0.06282  -0.0231   1.0000   0.1971
  -6.750  -0.3894   0.09019   0.08440  -0.0035   1.0000   0.4183
  -7.000  -0.4012   0.09346   0.08764  -0.0057   1.0000   0.4046
  -7.250  -0.3894   0.09477   0.08886  -0.0097   1.0000   0.3900
  -7.500  -0.3605   0.09500   0.08892  -0.0143   1.0000   0.3768
  -7.750  -0.3454   0.09642   0.09022  -0.0177   1.0000   0.3645
  -8.000  -0.3446   0.09889   0.09261  -0.0203   1.0000   0.3535
  -8.250  -0.3556   0.10218   0.09586  -0.0225   1.0000   0.3400
  -8.500  -0.3631   0.10517   0.09881  -0.0250   1.0000   0.3247
  -8.750  -0.3280   0.10469   0.09811  -0.0275   1.0000   0.3145
  -9.000  -0.3249   0.10706   0.10040  -0.0291   1.0000   0.3028
  -9.250  -0.3361   0.11058   0.10388  -0.0307   1.0000   0.2912
  -9.500  -0.3391   0.11305   0.10630  -0.0321   1.0000   0.2786
  -9.250  -0.3361   0.11058   0.10388  -0.0307   1.0000   0.2912
  -9.350  -0.3234   0.11045   0.10368  -0.0310   1.0000   0.2863
  -9.450  -0.3285   0.11166   0.10488  -0.0316   1.0000   0.2810
  -9.750  -0.3236   0.11464   0.10775  -0.0324   1.0000   0.2700
 -10.000  -0.3511   0.12008   0.11320  -0.0338   1.0000   0.2607
 -10.250  -0.3273   0.12021   0.11319  -0.0332   1.0000   0.2515
 -10.500  -0.3447   0.12493   0.11789  -0.0341   1.0000   0.2441
 -10.750  -0.3338   0.12612   0.11899  -0.0335   1.0000   0.2344
 -11.000  -0.3446   0.13028   0.12311  -0.0338   1.0000   0.2275
 -11.250  -0.3422   0.13221   0.12498  -0.0333   1.0000   0.2175
 -11.500  -0.3496   0.13609   0.12883  -0.0332   1.0000   0.2114
 -11.750  -0.3484   0.13813   0.13082  -0.0325   1.0000   0.2024
 -12.000  -0.3663   0.14351   0.13619  -0.0329   1.0000   0.1969
 -12.250  -0.3535   0.14408   0.13667  -0.0310   1.0000   0.1905
 -12.500  -0.3741   0.14916   0.14178  -0.0317   1.0000   0.1834
 -12.750  -0.3724   0.15194   0.14448  -0.0303   1.0000   0.1805
 -13.000  -0.3674   0.15327   0.14575  -0.0288   1.0000   0.1742
 -13.250  -0.3862   0.15830   0.15080  -0.0291   1.0000   0.1681
 -13.500  -0.3899   0.16189   0.15434  -0.0280   1.0000   0.1653
 -13.750  -0.3834   0.16251   0.15490  -0.0259   1.0000   0.1601
 -14.000  -0.3958   0.16640   0.15880  -0.0257   1.0000   0.1538
 -14.250  -0.4114   0.17236   0.16474  -0.0254   1.0000   0.1504
 -14.500  -0.4021   0.17189   0.16421  -0.0228   1.0000   0.1466
 -14.750  -0.4088   0.17469   0.16699  -0.0217   1.0000   0.1409
 -15.000  -0.4442   0.18543   0.17780  -0.0233   1.0000   0.1359
 -15.250  -0.4333   0.18428   0.17655  -0.0205   1.0000   0.1349
 -15.500  -0.4287   0.18416   0.17637  -0.0178   1.0000   0.1318
 -15.750  -0.4347   0.18672   0.17891  -0.0163   1.0000   0.1275
 -16.000  -0.4461   0.19057   0.18278  -0.0156   1.0000   0.1236
 -16.250  -0.4749   0.20155   0.19378  -0.0164   1.0000   0.1206
 -16.500  -0.4655   0.19912   0.19128  -0.0133   1.0000   0.1197
 -16.750  -0.4650   0.19928   0.19140  -0.0106   1.0000   0.1168
 -17.000  -0.4717   0.20178   0.19388  -0.0089   1.0000   0.1130
 -17.250  -0.4822   0.20531   0.19741  -0.0078   1.0000   0.1093
 -17.500  -0.5125   0.21835   0.21049  -0.0092   1.0000   0.1059
 -17.750  -0.5054   0.21526   0.20733  -0.0058   1.0000   0.1053
 -18.000  -0.5050   0.21452   0.20655  -0.0027   1.0000   0.1032
 -18.250  -0.5115   0.21663   0.20866  -0.0006   1.0000   0.0999
 -18.500  -0.5202   0.21957   0.21159   0.0010   1.0000   0.0970
 -18.750  -0.5309   0.22329   0.21531   0.0022   1.0000   0.0945
 -19.000  -0.5495   0.23179   0.22385   0.0020   1.0000   0.0922
 -19.250  -0.5588   0.23645   0.22847   0.0037   1.0000   0.0915
 -19.500  -0.5582   0.23445   0.22642   0.0071   1.0000   0.0907
 -19.750  -0.5626   0.23491   0.22685   0.0100   1.0000   0.0888
 -20.000  -0.5702   0.23715   0.22909   0.0122   1.0000   0.0865
