  
       XFOIL         Version 6.99
  
 Calculated polar for: A18 (original)                                  
  
 1 1 Reynolds number fixed          Mach number fixed         
  
 xtrf =   1.000 (top)        1.000 (bottom)  
 Mach =   0.000     Re =     0.050 e 6     Ncrit =   9.000
  
   alpha    CL        CD       CDp       CM     Top_Xtr  Bot_Xtr
  ------ -------- --------- --------- -------- -------- --------
   0.000   0.3196   0.02393   0.01353  -0.0808   1.0000   1.0000
   0.250   0.3400   0.02481   0.01432  -0.0810   1.0000   1.0000
   0.500   0.3597   0.02576   0.01521  -0.0812   1.0000   1.0000
   0.750   0.3788   0.02679   0.01620  -0.0814   1.0000   1.0000
   1.000   0.3974   0.02790   0.01729  -0.0817   1.0000   1.0000
   1.250   0.4311   0.02908   0.01847  -0.0848   0.9936   1.0000
   1.500   0.4768   0.03021   0.01962  -0.0900   0.9788   1.0000
   1.750   0.5206   0.03129   0.02075  -0.0946   0.9639   1.0000
   2.000   0.5627   0.03231   0.02188  -0.0987   0.9489   1.0000
   2.250   0.6028   0.03331   0.02298  -0.1023   0.9341   1.0000
   2.500   0.6426   0.03424   0.02405  -0.1057   0.9188   1.0000
   2.750   0.6942   0.03476   0.02479  -0.1103   0.9005   1.0000
   3.000   0.7370   0.03487   0.02510  -0.1126   0.8753   1.0000
   3.250   0.7898   0.03420   0.02470  -0.1152   0.8479   1.0000
   3.500   0.8409   0.03342   0.02427  -0.1173   0.8249   1.0000
   3.750   0.8875   0.03269   0.02388  -0.1186   0.8038   1.0000
   3.750   0.8875   0.03269   0.02388  -0.1186   0.8038   1.0000
   3.850   0.9037   0.03242   0.02374  -0.1186   0.7949   1.0000
   3.950   0.9283   0.03158   0.02307  -0.1193   0.7869   1.0000
   4.250   0.9806   0.02988   0.02186  -0.1184   0.7560   1.0000
   4.500   1.0154   0.02848   0.02080  -0.1157   0.7213   1.0000
   4.750   1.0535   0.02593   0.01850  -0.1112   0.6697   1.0000
   5.000   1.0738   0.02466   0.01720  -0.1053   0.5966   1.0000
   5.250   1.0852   0.02467   0.01680  -0.0990   0.4891   1.0000
   5.500   1.0873   0.02615   0.01728  -0.0930   0.3578   1.0000
   5.750   1.0872   0.02915   0.01899  -0.0883   0.2428   1.0000
   6.000   1.1021   0.03322   0.02226  -0.0858   0.1644   1.0000
   6.250   1.1281   0.03621   0.02508  -0.0846   0.1316   1.0000
   6.500   1.1545   0.03886   0.02764  -0.0840   0.1140   1.0000
   6.750   1.1836   0.04220   0.03137  -0.0832   0.1058   1.0000
   7.000   1.2086   0.04561   0.03483  -0.0826   0.0990   1.0000
   7.250   1.2256   0.04896   0.03887  -0.0805   0.0943   1.0000
   7.500   1.2415   0.05287   0.04328  -0.0786   0.0921   1.0000
   7.750   1.2520   0.05732   0.04828  -0.0762   0.0919   1.0000
   8.000   1.2563   0.06212   0.05367  -0.0735   0.0928   1.0000
   8.250   1.2552   0.06715   0.05922  -0.0708   0.0943   1.0000
   8.500   1.2497   0.07221   0.06471  -0.0681   0.0957   1.0000
   8.750   1.2418   0.07724   0.07007  -0.0657   0.0970   1.0000
   9.000   1.2330   0.08231   0.07539  -0.0637   0.0982   1.0000
   9.250   1.2265   0.08757   0.08086  -0.0621   0.0992   1.0000
   9.250   1.2265   0.08757   0.08086  -0.0621   0.0992   1.0000
   9.350   1.2251   0.08979   0.08312  -0.0616   0.0995   1.0000
   9.450   1.2227   0.09190   0.08532  -0.0611   0.1001   1.0000
   9.750   1.1245   0.09954   0.09341  -0.0610   0.1063   1.0000
  10.000   1.0956   0.10759   0.10152  -0.0649   0.1090   1.0000
  10.250   1.1210   0.11258   0.10652  -0.0624   0.1131   1.0000
  10.500   0.8757   0.12183   0.11591  -0.0608   0.1240   1.0000
  10.750   0.8735   0.12715   0.12123  -0.0614   0.1258   1.0000
  10.750   0.8717   0.12756   0.12166  -0.0618   0.1272   1.0000
  10.850   0.8748   0.12912   0.12327  -0.0614   0.1267   1.0000
  11.250   0.9768   0.16875   0.16238  -0.1116   0.2492   1.0000
  11.500   1.0022   0.17473   0.16842  -0.1098   0.2398   1.0000
  11.750   0.9828   0.17702   0.17062  -0.1135   0.2318   1.0000
  12.000   1.0077   0.18347   0.17715  -0.1120   0.2261   1.0000
  12.250   0.9894   0.18558   0.17915  -0.1162   0.2202   1.0000
  12.500   1.0018   0.19039   0.18402  -0.1163   0.2135   1.0000
  12.750   1.0064   0.19522   0.18883  -0.1178   0.2098   1.0000
  13.000   1.0028   0.19769   0.19127  -0.1203   0.2024   1.0000
  13.250   1.0266   0.20524   0.19887  -0.1190   0.1966   1.0000
  13.500   1.0123   0.20562   0.19917  -0.1235   0.1911   1.0000
  13.750   1.0422   0.21439   0.20801  -0.1209   0.1825   1.0000
  14.000   1.0256   0.21373   0.20726  -0.1262   0.1792   1.0000
  14.250   1.0337   0.21743   0.21097  -0.1273   0.1715   1.0000
  14.500   1.0508   0.22470   0.21826  -0.1271   0.1678   1.0000
  14.750   1.0423   0.22467   0.21817  -0.1317   0.1631   1.0000
  15.000   1.0520   0.22875   0.22227  -0.1327   0.1574   1.0000
  15.250   1.0727   0.23756   0.23112  -0.1317   0.1539   1.0000
  15.500   1.0634   0.23625   0.22974  -0.1371   0.1506   1.0000
  15.750   1.0700   0.23946   0.23295  -0.1391   0.1451   1.0000
  16.000   1.0995   0.25190   0.24551  -0.1359   0.1402   1.0000
  16.250   1.0888   0.24886   0.24239  -0.1417   0.1388   1.0000
  16.500   1.0907   0.25027   0.24377  -0.1454   0.1339   1.0000
  16.750   1.1029   0.25507   0.24860  -0.1458   0.1285   1.0000
  17.000   1.1146   0.26152   0.25505  -0.1465   0.1258   1.0000
  17.250   1.1135   0.26108   0.25457  -0.1514   0.1223   1.0000
  17.500   1.1216   0.26436   0.25787  -0.1533   0.1173   1.0000
  17.750   1.1414   0.27425   0.26783  -0.1513   0.1134   1.0000
  18.000   1.1432   0.27535   0.26887  -0.1552   0.1123   1.0000
  18.250   1.1443   0.27509   0.26858  -0.1599   0.1096   1.0000
  18.500   1.1515   0.27798   0.27148  -0.1624   0.1057   1.0000
  18.750   1.1617   0.28224   0.27576  -0.1636   0.1023   1.0000
  19.000   1.1812   0.29492   0.28853  -0.1615   0.0998   1.0000
  19.250   1.1795   0.29168   0.28525  -0.1670   0.0990   1.0000
  19.500   1.1832   0.29199   0.28553  -0.1713   0.0965   1.0000
  19.750   1.1906   0.29479   0.28835  -0.1740   0.0933   1.0000
  20.000   1.1994   0.29841   0.29199  -0.1757   0.0904   1.0000
   0.000   0.3196   0.02393   0.01353  -0.0808   1.0000   1.0000
  -0.250   0.2986   0.02313   0.01285  -0.0807   1.0000   1.0000
  -0.500   0.2770   0.02241   0.01226  -0.0805   1.0000   1.0000
  -0.750   0.2547   0.02175   0.01179  -0.0804   1.0000   1.0000
  -1.000   0.2316   0.02115   0.01146  -0.0803   1.0000   1.0000
  -1.250   0.2068   0.02060   0.01129  -0.0799   1.0000   1.0000
  -1.500   0.1950   0.02069   0.01163  -0.0819   1.0000   0.7338
  -1.750   0.1718   0.02244   0.01205  -0.0838   1.0000   0.4907
  -2.000   0.1425   0.02342   0.01252  -0.0835   1.0000   0.3863
  -2.250   0.1132   0.02402   0.01310  -0.0832   1.0000   0.3211
  -2.500   0.0858   0.02451   0.01352  -0.0831   1.0000   0.2807
  -2.750   0.0575   0.02537   0.01440  -0.0828   1.0000   0.2584
  -3.000   0.0283   0.02640   0.01554  -0.0822   1.0000   0.2421
  -3.250  -0.0007   0.02738   0.01682  -0.0815   1.0000   0.2250
  -3.500  -0.0302   0.02872   0.01843  -0.0807   1.0000   0.2161
  -3.750  -0.0623   0.03062   0.02074  -0.0792   1.0000   0.2117
  -4.000  -0.0974   0.03294   0.02365  -0.0767   1.0000   0.2066
  -4.250  -0.1232   0.03474   0.02556  -0.0762   1.0000   0.1986
  -4.500  -0.1720   0.03986   0.03168  -0.0687   1.0000   0.2095
  -4.500  -0.1720   0.03986   0.03168  -0.0687   1.0000   0.2095
  -4.600  -0.1874   0.04168   0.03369  -0.0668   1.0000   0.2157
  -5.250  -0.3622   0.06448   0.05832  -0.0082   1.0000   0.4055
  -5.500  -0.3673   0.06718   0.06098  -0.0115   1.0000   0.3756
  -5.750  -0.3729   0.06986   0.06363  -0.0122   1.0000   0.3503
  -6.000  -0.3798   0.07282   0.06655  -0.0142   1.0000   0.3319
  -6.250  -0.3867   0.07625   0.06997  -0.0176   1.0000   0.3152
  -6.500  -0.3883   0.07832   0.07198  -0.0150   1.0000   0.2947
  -6.750  -0.3924   0.08102   0.07463  -0.0161   1.0000   0.2768
  -7.000  -0.3951   0.08383   0.07737  -0.0164   1.0000   0.2635
  -7.250  -0.3999   0.08714   0.08063  -0.0174   1.0000   0.2542
  -7.250  -0.3999   0.08714   0.08063  -0.0174   1.0000   0.2542
  -7.350  -0.3983   0.08778   0.08123  -0.0167   1.0000   0.2490
  -7.450  -0.4049   0.08955   0.08301  -0.0184   1.0000   0.2446
  -7.750  -0.4004   0.09220   0.08553  -0.0170   1.0000   0.2345
  -8.000  -0.4064   0.09583   0.08910  -0.0182   1.0000   0.2262
  -8.250  -0.4203   0.10056   0.09384  -0.0211   1.0000   0.2135
  -8.500  -0.4001   0.10028   0.09336  -0.0191   1.0000   0.2096
  -8.750  -0.4210   0.10600   0.09911  -0.0208   1.0000   0.1988
  -9.000  -0.4006   0.10560   0.09852  -0.0199   1.0000   0.1951
  -9.250  -0.4118   0.10953   0.10245  -0.0209   1.0000   0.1865
  -9.500  -0.4103   0.11234   0.10519  -0.0203   1.0000   0.1830
  -9.750  -0.4066   0.11397   0.10674  -0.0193   1.0000   0.1765
 -10.000  -0.4281   0.12063   0.11344  -0.0209   1.0000   0.1699
 -10.250  -0.4149   0.12045   0.11312  -0.0184   1.0000   0.1666
 -10.500  -0.4217   0.12365   0.11631  -0.0183   1.0000   0.1588
 -10.750  -0.4302   0.12821   0.12083  -0.0183   1.0000   0.1545
 -11.000  -0.4254   0.12928   0.12183  -0.0163   1.0000   0.1494
 -11.250  -0.4398   0.13419   0.12676  -0.0171   1.0000   0.1427
 -11.500  -0.4466   0.13867   0.13120  -0.0165   1.0000   0.1404
 -11.750  -0.4402   0.13913   0.13158  -0.0140   1.0000   0.1373
 -12.000  -0.4445   0.14195   0.13438  -0.0130   1.0000   0.1324
 -12.250  -0.4761   0.15258   0.14511  -0.0156   1.0000   0.1268
 -12.500  -0.4659   0.15181   0.14422  -0.0128   1.0000   0.1261
 -12.750  -0.4611   0.15217   0.14452  -0.0103   1.0000   0.1236
 -13.000  -0.4649   0.15475   0.14710  -0.0090   1.0000   0.1193
 -13.250  -0.4768   0.15940   0.15177  -0.0090   1.0000   0.1145
 -13.500  -0.4889   0.16552   0.15787  -0.0088   1.0000   0.1121
 -13.750  -0.4845   0.16536   0.15765  -0.0061   1.0000   0.1102
 -14.000  -0.4881   0.16759   0.15985  -0.0045   1.0000   0.1063
 -14.250  -0.4960   0.17105   0.16331  -0.0036   1.0000   0.1025
 -14.500  -0.5151   0.17909   0.17140  -0.0045   1.0000   0.0992
 -14.750  -0.5208   0.18294   0.17520  -0.0031   1.0000   0.0983
 -15.000  -0.5186   0.18263   0.17484  -0.0004   1.0000   0.0974
 -15.250  -0.5215   0.18407   0.17626   0.0018   1.0000   0.0951
 -15.500  -0.5278   0.18686   0.17903   0.0034   1.0000   0.0922
 -15.750  -0.5357   0.19017   0.18233   0.0046   1.0000   0.0895
 -16.000  -0.5459   0.19451   0.18671   0.0053   1.0000   0.0869
 -16.250  -0.5682   0.20646   0.19869   0.0043   1.0000   0.0848
 -16.500  -0.5661   0.20502   0.19720   0.0071   1.0000   0.0843
 -16.750  -0.5674   0.20463   0.19677   0.0100   1.0000   0.0833
 -17.000  -0.5729   0.20627   0.19839   0.0123   1.0000   0.0810
 -17.250  -0.5804   0.20909   0.20120   0.0140   1.0000   0.0783
 -17.500  -0.5889   0.21235   0.20447   0.0155   1.0000   0.0757
 -17.750  -0.5987   0.21643   0.20856   0.0165   1.0000   0.0734
 -18.000  -0.6158   0.22652   0.21870   0.0160   1.0000   0.0715
 -18.250  -0.6248   0.23157   0.22371   0.0175   1.0000   0.0710
 -18.500  -0.6269   0.23043   0.22253   0.0205   1.0000   0.0706
 -18.750  -0.6314   0.23037   0.22245   0.0233   1.0000   0.0699
 -19.000  -0.6382   0.23188   0.22394   0.0259   1.0000   0.0685
 -19.250  -0.6462   0.23440   0.22650   0.0280   1.0000   0.0668
 -19.500  -0.6546   0.23732   0.22942   0.0299   1.0000   0.0651
 -19.750  -0.6633   0.24040   0.23250   0.0318   1.0000   0.0635
 -20.000  -0.6721   0.24366   0.23576   0.0335   1.0000   0.0620
