  
       XFOIL         Version 6.99
  
 Calculated polar for: RG-15 8.9%                                      
  
 1 1 Reynolds number fixed          Mach number fixed         
  
 xtrf =   1.000 (top)        1.000 (bottom)  
 Mach =   0.000     Re =     0.050 e 6     Ncrit =   9.000
  
   alpha    CL        CD       CDp       CM     Top_Xtr  Bot_Xtr
  ------ -------- --------- --------- -------- -------- --------
   0.000   0.0034   0.01819   0.00806  -0.0164   1.0000   1.0000
   0.250   0.0228   0.01856   0.00830  -0.0161   1.0000   1.0000
   0.500   0.0419   0.01899   0.00862  -0.0159   1.0000   1.0000
   0.750   0.0606   0.01948   0.00900  -0.0158   1.0000   1.0000
   1.000   0.0790   0.02003   0.00948  -0.0157   1.0000   1.0000
   1.250   0.0969   0.02064   0.01004  -0.0157   1.0000   1.0000
   1.500   0.1145   0.02133   0.01068  -0.0157   1.0000   1.0000
   1.750   0.1316   0.02208   0.01140  -0.0158   1.0000   1.0000
   2.000   0.1889   0.02352   0.01284  -0.0233   0.9807   1.0000
   2.250   0.2467   0.02470   0.01408  -0.0305   0.9585   1.0000
   2.500   0.2992   0.02561   0.01508  -0.0362   0.9355   1.0000
   2.750   0.3550   0.02635   0.01594  -0.0421   0.9126   1.0000
   3.000   0.4088   0.02685   0.01659  -0.0471   0.8887   1.0000
   3.250   0.4566   0.02717   0.01712  -0.0506   0.8636   1.0000
   3.500   0.5089   0.02722   0.01738  -0.0543   0.8386   1.0000
   3.750   0.5686   0.02681   0.01729  -0.0583   0.8141   1.0000
   4.000   0.6247   0.02609   0.01685  -0.0608   0.7887   1.0000
   4.250   0.6686   0.02550   0.01649  -0.0612   0.7601   1.0000
   4.500   0.7034   0.02513   0.01635  -0.0601   0.7281   1.0000
   4.750   0.7391   0.02461   0.01599  -0.0588   0.6941   1.0000
   5.000   0.7702   0.02428   0.01576  -0.0567   0.6571   1.0000
   5.250   0.7988   0.02407   0.01558  -0.0544   0.6171   1.0000
   5.500   0.8231   0.02414   0.01569  -0.0517   0.5731   1.0000
   5.750   0.8456   0.02437   0.01584  -0.0490   0.5254   1.0000
   6.000   0.8664   0.02480   0.01612  -0.0462   0.4744   1.0000
   6.250   0.8856   0.02547   0.01655  -0.0434   0.4206   1.0000
   6.500   0.9031   0.02644   0.01724  -0.0406   0.3654   1.0000
   6.750   0.9193   0.02773   0.01836  -0.0381   0.3117   1.0000
   7.000   0.9357   0.02931   0.01971  -0.0358   0.2637   1.0000
   7.250   0.9537   0.03117   0.02137  -0.0339   0.2231   1.0000
   7.500   0.9730   0.03343   0.02363  -0.0322   0.1907   1.0000
   7.750   0.9911   0.03571   0.02590  -0.0305   0.1634   1.0000
   8.000   1.0127   0.03867   0.02877  -0.0294   0.1430   1.0000
   8.250   1.0274   0.04162   0.03210  -0.0274   0.1270   1.0000
   8.500   1.0428   0.04497   0.03568  -0.0258   0.1147   1.0000
   8.750   1.0576   0.04825   0.03923  -0.0242   0.1046   1.0000
   9.000   1.0618   0.05267   0.04426  -0.0218   0.1014   1.0000
   9.250   1.0596   0.05696   0.04916  -0.0193   0.0985   1.0000
   9.500   1.0570   0.06102   0.05363  -0.0173   0.0953   1.0000
   9.750   1.0722   0.06530   0.05776  -0.0168   0.0903   1.0000
  10.000   1.0667   0.07026   0.06306  -0.0152   0.0905   1.0000
  10.250   1.0057   0.07534   0.06890  -0.0123   0.0973   1.0000
  10.500   0.9800   0.08058   0.07428  -0.0122   0.0996   1.0000
  10.750   0.9592   0.08633   0.08010  -0.0136   0.1013   1.0000
  11.000   0.9434   0.09251   0.08625  -0.0159   0.1026   1.0000
  11.250   0.9327   0.09899   0.09274  -0.0185   0.1034   1.0000
  11.250   0.9311   0.09913   0.09292  -0.0188   0.1039   1.0000
  11.500   0.8643   0.11938   0.11300  -0.0366   0.1291   1.0000
  11.600   0.8714   0.12135   0.11500  -0.0359   0.1300   1.0000
  12.000   0.8097   0.15137   0.14473  -0.0624   0.2675   1.0000
  12.250   0.7890   0.15342   0.14664  -0.0654   0.2617   1.0000
  12.500   0.8019   0.15876   0.15207  -0.0656   0.2522   1.0000
  12.750   0.8129   0.16358   0.15691  -0.0657   0.2391   1.0000
  13.000   0.8027   0.16582   0.15910  -0.0682   0.2309   1.0000
  13.250   0.8190   0.17200   0.16531  -0.0684   0.2251   1.0000
  13.500   0.8106   0.17400   0.16726  -0.0710   0.2179   1.0000
  13.750   0.8240   0.17956   0.17285  -0.0715   0.2107   1.0000
  14.000   0.8450   0.18602   0.17935  -0.0708   0.1982   1.0000
  14.250   0.8285   0.18630   0.17954  -0.0748   0.1950   1.0000
  14.500   0.8431   0.19133   0.18462  -0.0750   0.1859   1.0000
  14.750   0.8438   0.19488   0.18812  -0.0774   0.1828   1.0000
  15.000   0.8449   0.19746   0.19068  -0.0797   0.1758   1.0000
  15.250   0.8683   0.20561   0.19888  -0.0789   0.1706   1.0000
  15.500   0.8578   0.20535   0.19854  -0.0831   0.1669   1.0000
  15.750   0.8697   0.20974   0.20297  -0.0838   0.1592   1.0000
  16.000   0.8764   0.21411   0.20731  -0.0856   0.1557   1.0000
  16.250   0.8776   0.21597   0.20914  -0.0884   0.1493   1.0000
  16.500   0.9009   0.22472   0.21800  -0.0873   0.1434   1.0000
  16.750   0.8935   0.22389   0.21710  -0.0917   0.1409   1.0000
  17.000   0.8992   0.22678   0.21999  -0.0939   0.1354   1.0000
  17.250   0.9183   0.23412   0.22739  -0.0933   0.1308   1.0000
  17.500   0.9210   0.23683   0.23004  -0.0962   0.1292   1.0000
  17.750   0.9212   0.23762   0.23080  -0.0999   0.1254   1.0000
  18.000   0.9298   0.24113   0.23432  -0.1016   0.1209   1.0000
  18.250   0.9570   0.25384   0.24712  -0.0995   0.1168   1.0000
  18.500   0.9511   0.25126   0.24446  -0.1041   0.1160   1.0000
  18.750   0.9521   0.25165   0.24482  -0.1079   0.1129   1.0000
  19.000   0.9598   0.25475   0.24792  -0.1100   0.1086   1.0000
  19.250   0.9794   0.26390   0.25715  -0.1089   0.1040   1.0000
  19.500   0.9823   0.26553   0.25872  -0.1121   0.1029   1.0000
  19.750   0.9833   0.26513   0.25829  -0.1162   0.1001   1.0000
  20.000   0.9906   0.26797   0.26112  -0.1184   0.0963   1.0000
   0.000   0.0034   0.01819   0.00806  -0.0164   1.0000   1.0000
  -0.250  -0.0161   0.01787   0.00788  -0.0167   1.0000   1.0000
  -0.500  -0.0358   0.01760   0.00779  -0.0170   1.0000   1.0000
  -0.750  -0.0553   0.01739   0.00779  -0.0174   1.0000   1.0000
  -1.000  -0.0742   0.01723   0.00785  -0.0178   1.0000   1.0000
  -1.250  -0.0918   0.01714   0.00799  -0.0185   1.0000   1.0000
  -1.500  -0.1066   0.01714   0.00823  -0.0196   1.0000   1.0000
  -1.750  -0.1150   0.01725   0.00856  -0.0217   1.0000   1.0000
  -2.000  -0.1146   0.01750   0.00899  -0.0251   1.0000   1.0000
  -2.250  -0.1106   0.01783   0.00944  -0.0290   1.0000   1.0000
  -2.500  -0.1062   0.01824   0.00996  -0.0328   1.0000   1.0000
  -2.500  -0.1062   0.01824   0.00996  -0.0328   1.0000   1.0000
  -2.600  -0.1047   0.01842   0.01019  -0.0341   1.0000   1.0000
  -3.000  -0.2488   0.01859   0.00995  -0.0299   1.0000   0.4451
  -3.250  -0.2667   0.02171   0.01138  -0.0318   1.0000   0.2358
  -3.500  -0.2895   0.02355   0.01291  -0.0333   1.0000   0.1799
  -3.750  -0.3133   0.02527   0.01462  -0.0347   1.0000   0.1539
  -4.000  -0.3378   0.02720   0.01671  -0.0360   1.0000   0.1403
  -4.250  -0.3614   0.02913   0.01890  -0.0369   1.0000   0.1275
  -4.500  -0.3845   0.03164   0.02155  -0.0379   1.0000   0.1223
  -4.750  -0.4081   0.03459   0.02501  -0.0387   1.0000   0.1209
  -5.000  -0.4300   0.03767   0.02873  -0.0394   1.0000   0.1194
  -5.250  -0.4495   0.04108   0.03272  -0.0398   1.0000   0.1180
  -5.500  -0.4671   0.04500   0.03692  -0.0403   1.0000   0.1207
  -5.750  -0.4826   0.05035   0.04299  -0.0395   1.0000   0.1335
  -5.750  -0.4826   0.05035   0.04299  -0.0395   1.0000   0.1335
  -5.850  -0.4899   0.05211   0.04458  -0.0403   1.0000   0.1357
  -5.950  -0.4945   0.05511   0.04801  -0.0389   1.0000   0.1491
  -6.000  -0.4953   0.05899   0.05245  -0.0344   1.0000   0.1803
  -6.500  -0.4237   0.07825   0.07185   0.0004   1.0000   0.4112
  -6.750  -0.4303   0.08124   0.07478  -0.0020   1.0000   0.3856
  -7.000  -0.4482   0.08504   0.07858  -0.0042   1.0000   0.3607
  -7.250  -0.4366   0.08673   0.08017  -0.0061   1.0000   0.3412
  -7.500  -0.4390   0.08967   0.08304  -0.0073   1.0000   0.3253
  -7.750  -0.4418   0.09265   0.08595  -0.0083   1.0000   0.3106
  -8.000  -0.4442   0.09573   0.08897  -0.0091   1.0000   0.2963
  -8.250  -0.4460   0.09878   0.09195  -0.0095   1.0000   0.2837
  -8.500  -0.4499   0.10210   0.09521  -0.0100   1.0000   0.2721
  -8.750  -0.4560   0.10566   0.09872  -0.0105   1.0000   0.2597
  -9.000  -0.4658   0.10952   0.10255  -0.0113   1.0000   0.2470
  -9.250  -0.4755   0.11339   0.10639  -0.0121   1.0000   0.2336
  -9.500  -0.4664   0.11500   0.10791  -0.0110   1.0000   0.2229
  -9.750  -0.4651   0.11801   0.11084  -0.0103   1.0000   0.2152
 -10.000  -0.4837   0.12321   0.11605  -0.0115   1.0000   0.2052
 -10.250  -0.4715   0.12441   0.11714  -0.0095   1.0000   0.1976
 -10.500  -0.4884   0.12978   0.12252  -0.0103   1.0000   0.1910
 -10.750  -0.4783   0.13106   0.12371  -0.0083   1.0000   0.1842
 -11.000  -0.5004   0.13734   0.13006  -0.0096   1.0000   0.1773
 -11.250  -0.4863   0.13789   0.13046  -0.0069   1.0000   0.1727
 -11.500  -0.5011   0.14256   0.13520  -0.0074   1.0000   0.1651
 -11.750  -0.5013   0.14584   0.13840  -0.0060   1.0000   0.1620
 -12.000  -0.4986   0.14775   0.14026  -0.0043   1.0000   0.1562
 -12.250  -0.5267   0.15588   0.14844  -0.0062   1.0000   0.1495
 -12.500  -0.5127   0.15557   0.14803  -0.0030   1.0000   0.1476
 -12.750  -0.5129   0.15774   0.15016  -0.0015   1.0000   0.1419
 -13.000  -0.5397   0.16617   0.15863  -0.0031   1.0000   0.1355
 -13.250  -0.5284   0.16571   0.15809  -0.0001   1.0000   0.1339
 -13.500  -0.5285   0.16760   0.15993   0.0017   1.0000   0.1286
 -13.750  -0.5577   0.17723   0.16962  -0.0001   1.0000   0.1217
 -14.000  -0.5487   0.17668   0.16899   0.0028   1.0000   0.1208
 -14.250  -0.5465   0.17757   0.16983   0.0052   1.0000   0.1175
 -14.500  -0.5529   0.18063   0.17288   0.0064   1.0000   0.1128
 -14.750  -0.5843   0.19233   0.18464   0.0044   1.0000   0.1080
 -15.000  -0.5764   0.19117   0.18341   0.0074   1.0000   0.1074
 -15.250  -0.5740   0.19125   0.18344   0.0101   1.0000   0.1056
 -15.500  -0.5783   0.19353   0.18574   0.0120   1.0000   0.1021
 -15.750  -0.5862   0.19680   0.18900   0.0132   1.0000   0.0987
 -16.000  -0.6012   0.20289   0.19512   0.0131   1.0000   0.0953
 -16.250  -0.6133   0.20928   0.20148   0.0139   1.0000   0.0939
 -16.500  -0.6114   0.20847   0.20062   0.0169   1.0000   0.0930
 -16.750  -0.6149   0.20978   0.20190   0.0193   1.0000   0.0908
 -17.000  -0.6217   0.21248   0.20459   0.0211   1.0000   0.0877
 -17.250  -0.6301   0.21580   0.20791   0.0224   1.0000   0.0849
 -17.500  -0.6412   0.22044   0.21256   0.0231   1.0000   0.0824
 -17.750  -0.6607   0.23140   0.22353   0.0226   1.0000   0.0806
 -18.000  -0.6604   0.23009   0.22218   0.0256   1.0000   0.0802
 -18.250  -0.6626   0.22978   0.22183   0.0285   1.0000   0.0791
 -18.500  -0.6683   0.23139   0.22341   0.0309   1.0000   0.0770
 -18.750  -0.6758   0.23406   0.22608   0.0327   1.0000   0.0746
 -19.000  -0.6842   0.23715   0.22917   0.0343   1.0000   0.0721
 -19.250  -0.6940   0.24114   0.23322   0.0355   1.0000   0.0696
 -19.500  -0.7162   0.25602   0.24814   0.0341   1.0000   0.0673
 -19.750  -0.7171   0.25407   0.24615   0.0371   1.0000   0.0671
 -20.000  -0.7197   0.25278   0.24483   0.0402   1.0000   0.0665
