  
       XFOIL         Version 6.99
  
 Calculated polar for: RG-15 8.9%                                      
  
 1 1 Reynolds number fixed          Mach number fixed         
  
 xtrf =   1.000 (top)        1.000 (bottom)  
 Mach =   0.000     Re =     0.050 e 6     Ncrit =   9.000
  
   alpha    CL        CD       CDp       CM     Top_Xtr  Bot_Xtr
  ------ -------- --------- --------- -------- -------- --------
   0.000   0.0034   0.01819   0.00806  -0.0164   1.0000   1.0000
   0.250   0.0228   0.01856   0.00830  -0.0161   1.0000   1.0000
   0.500   0.0419   0.01899   0.00862  -0.0159   1.0000   1.0000
   0.750   0.0606   0.01948   0.00900  -0.0158   1.0000   1.0000
   1.000   0.0790   0.02003   0.00948  -0.0157   1.0000   1.0000
   1.250   0.0969   0.02064   0.01004  -0.0157   1.0000   1.0000
   1.500   0.1145   0.02133   0.01068  -0.0157   1.0000   1.0000
   1.750   0.1316   0.02208   0.01140  -0.0158   1.0000   1.0000
   2.000   0.1889   0.02352   0.01284  -0.0233   0.9807   1.0000
   2.250   0.2467   0.02470   0.01408  -0.0305   0.9585   1.0000
   2.500   0.2992   0.02561   0.01508  -0.0362   0.9355   1.0000
   2.750   0.3550   0.02635   0.01594  -0.0421   0.9126   1.0000
   3.000   0.4088   0.02685   0.01659  -0.0471   0.8887   1.0000
   3.250   0.4566   0.02717   0.01712  -0.0506   0.8636   1.0000
   3.500   0.5089   0.02722   0.01738  -0.0543   0.8386   1.0000
   3.750   0.5686   0.02681   0.01729  -0.0583   0.8141   1.0000
   4.000   0.6247   0.02609   0.01685  -0.0608   0.7887   1.0000
   4.250   0.6686   0.02550   0.01649  -0.0612   0.7601   1.0000
   4.500   0.7034   0.02513   0.01635  -0.0601   0.7281   1.0000
   4.750   0.7391   0.02461   0.01599  -0.0588   0.6941   1.0000
   5.000   0.7702   0.02428   0.01576  -0.0567   0.6571   1.0000
   5.250   0.7988   0.02407   0.01558  -0.0544   0.6171   1.0000
   5.500   0.8231   0.02414   0.01569  -0.0517   0.5731   1.0000
   5.750   0.8456   0.02437   0.01584  -0.0490   0.5254   1.0000
   6.000   0.8664   0.02480   0.01612  -0.0462   0.4744   1.0000
   6.250   0.8856   0.02547   0.01655  -0.0434   0.4206   1.0000
   6.500   0.9031   0.02644   0.01724  -0.0406   0.3654   1.0000
   6.750   0.9193   0.02773   0.01836  -0.0381   0.3117   1.0000
   7.000   0.9357   0.02931   0.01971  -0.0358   0.2637   1.0000
   7.250   0.9537   0.03117   0.02137  -0.0339   0.2231   1.0000
   7.500   0.9730   0.03343   0.02363  -0.0322   0.1907   1.0000
   7.750   0.9911   0.03571   0.02590  -0.0305   0.1634   1.0000
   8.000   1.0127   0.03867   0.02877  -0.0294   0.1430   1.0000
   8.250   1.0274   0.04162   0.03210  -0.0274   0.1270   1.0000
   8.500   1.0428   0.04497   0.03568  -0.0258   0.1147   1.0000
   8.750   1.0576   0.04825   0.03923  -0.0242   0.1046   1.0000
   9.000   1.0618   0.05267   0.04426  -0.0218   0.1014   1.0000
   9.250   1.0596   0.05696   0.04916  -0.0193   0.0985   1.0000
   9.500   1.0570   0.06102   0.05363  -0.0173   0.0953   1.0000
   9.750   1.0722   0.06530   0.05776  -0.0168   0.0903   1.0000
  10.000   1.0667   0.07026   0.06306  -0.0152   0.0905   1.0000
  10.250   1.0057   0.07534   0.06890  -0.0123   0.0973   1.0000
  10.500   0.9800   0.08058   0.07428  -0.0122   0.0996   1.0000
  10.750   0.9592   0.08633   0.08010  -0.0136   0.1013   1.0000
  11.000   0.9434   0.09251   0.08625  -0.0159   0.1026   1.0000
  11.250   0.9327   0.09899   0.09274  -0.0185   0.1034   1.0000
  11.250   0.9311   0.09913   0.09292  -0.0188   0.1039   1.0000
  12.000   0.6379   0.14292   0.13667  -0.0538   0.2891   1.0000
  11.750   0.6583   0.14170   0.13547  -0.0523   0.2952   1.0000
  11.850   0.6474   0.14202   0.13577  -0.0530   0.2940   1.0000
  11.950   0.6390   0.14242   0.13616  -0.0536   0.2910   1.0000
  12.250   0.6503   0.14800   0.14180  -0.0541   0.2804   1.0000
  12.500   0.6546   0.15149   0.14534  -0.0543   0.2668   1.0000
  12.750   0.6449   0.15261   0.14648  -0.0551   0.2565   1.0000
  13.000   0.6432   0.15573   0.14962  -0.0561   0.2510   1.0000
  13.250   0.6637   0.16214   0.15608  -0.0560   0.2396   1.0000
  13.500   0.6424   0.16130   0.15523  -0.0581   0.2348   1.0000
  13.750   0.6516   0.16550   0.15951  -0.0585   0.2242   1.0000
  14.000   0.6588   0.16902   0.16307  -0.0590   0.2134   1.0000
  14.250   0.6532   0.17116   0.16519  -0.0608   0.2096   1.0000
  14.500   0.6555   0.17386   0.16793  -0.0619   0.2017   1.0000
  14.750   0.6609   0.17792   0.17199  -0.0629   0.1965   1.0000
  15.000   0.6615   0.18009   0.17419  -0.0642   0.1879   1.0000
  15.250   0.6664   0.18392   0.17802  -0.0653   0.1825   1.0000
  15.500   0.6681   0.18634   0.18047  -0.0667   0.1742   1.0000
  15.750   0.6808   0.19212   0.18627  -0.0671   0.1702   1.0000
  16.000   0.6724   0.19252   0.18666  -0.0697   0.1657   1.0000
  16.250   0.6809   0.19644   0.19063  -0.0705   0.1595   1.0000
  16.500   0.6902   0.20168   0.19587  -0.0713   0.1565   1.0000
  16.750   0.6835   0.20228   0.19648  -0.0739   0.1516   1.0000
  17.000   0.6964   0.20729   0.20153  -0.0741   0.1448   1.0000
  17.250   0.6971   0.21033   0.20456  -0.0760   0.1423   1.0000
  17.500   0.6956   0.21202   0.20627  -0.0782   0.1378   1.0000
  17.750   0.7057   0.21647   0.21080  -0.0787   0.1319   1.0000
  18.000   0.7135   0.22160   0.21593  -0.0798   0.1296   1.0000
  18.250   0.7087   0.22241   0.21675  -0.0825   0.1265   1.0000
  18.500   0.7126   0.22556   0.21992  -0.0841   0.1219   1.0000
  18.750   0.7238   0.23078   0.22519  -0.0845   0.1180   1.0000
  19.000   0.7304   0.23584   0.23025  -0.0857   0.1163   1.0000
  19.250   0.7264   0.23657   0.23098  -0.0885   0.1143   1.0000
  19.500   0.7288   0.23947   0.23391  -0.0903   0.1104   1.0000
  19.750   0.7347   0.24312   0.23759  -0.0916   0.1071   1.0000
  20.000   0.7534   0.25265   0.24715  -0.0911   0.1035   1.0000
   0.000  -0.0255   0.00450  -0.00461  -0.0128   1.0000   1.0000
  -0.250  -0.0428   0.00425  -0.00472  -0.0129   1.0000   1.0000
  -0.500  -0.0601   0.00405  -0.00473  -0.0131   1.0000   1.0000
  -0.750  -0.0771   0.00390  -0.00470  -0.0133   1.0000   1.0000
  -1.000  -0.0925   0.00380  -0.00460  -0.0137   1.0000   1.0000
  -1.250  -0.1038   0.00374  -0.00444  -0.0147   1.0000   1.0000
  -1.500  -0.1055   0.00373  -0.00427  -0.0172   1.0000   1.0000
  -1.750  -0.0972   0.00381  -0.00406  -0.0210   1.0000   1.0000
  -2.000  -0.0861   0.00399  -0.00380  -0.0250   1.0000   1.0000
  -2.250  -0.0749   0.00425  -0.00344  -0.0289   1.0000   1.0000
  -2.500  -0.2487   0.00383  -0.00262  -0.0110   1.0000   0.8054
  -2.750  -0.2421   0.00391  -0.00277  -0.0212   1.0000   0.6692
  -3.000  -0.2422   0.00551  -0.00325  -0.0293   1.0000   0.3511
  -3.250  -0.2629   0.00772  -0.00196  -0.0305   1.0000   0.2220
  -3.500  -0.2846   0.00959  -0.00037  -0.0320   1.0000   0.1760
  -3.750  -0.3075   0.01144   0.00154  -0.0335   1.0000   0.1534
  -4.000  -0.3310   0.01351   0.00382  -0.0346   1.0000   0.1406
  -4.250  -0.3535   0.01564   0.00622  -0.0355   1.0000   0.1286
  -4.500  -0.3756   0.01815   0.00905  -0.0365   1.0000   0.1243
  -4.750  -0.3968   0.02116   0.01240  -0.0373   1.0000   0.1227
  -5.000  -0.4160   0.02449   0.01616  -0.0378   1.0000   0.1211
  -5.250  -0.4328   0.02807   0.02034  -0.0381   1.0000   0.1201
  -5.750  -0.4582   0.03752   0.03073  -0.0378   1.0000   0.1348
  -6.000  -0.4961   0.05735   0.05054  -0.0372   1.0000   0.1626
  -6.750  -0.4303   0.08124   0.07478  -0.0020   1.0000   0.3856
  -6.500  -0.4237   0.07825   0.07185   0.0004   1.0000   0.4112
  -6.600  -0.4327   0.07995   0.07356  -0.0003   1.0000   0.4020
  -6.700  -0.4447   0.08175   0.07538  -0.0012   1.0000   0.3893
  -7.000  -0.4482   0.08504   0.07858  -0.0042   1.0000   0.3607
  -6.750  -0.4303   0.08124   0.07478  -0.0020   1.0000   0.3855
  -6.850  -0.4388   0.08282   0.07637  -0.0031   1.0000   0.3736
  -6.950  -0.4611   0.08546   0.07908  -0.0038   1.0000   0.3617
  -7.250  -0.4366   0.08673   0.08016  -0.0061   1.0000   0.3412
  -7.000  -0.4482   0.08504   0.07858  -0.0042   1.0000   0.3607
  -7.100  -0.4370   0.08507   0.07853  -0.0051   1.0000   0.3522
  -7.200  -0.4430   0.08678   0.08027  -0.0058   1.0000   0.3452
  -7.500  -0.4390   0.08967   0.08304  -0.0073   1.0000   0.3253
  -7.750  -0.4418   0.09265   0.08595  -0.0083   1.0000   0.3106
  -8.000  -0.4442   0.09573   0.08897  -0.0091   1.0000   0.2963
  -8.250  -0.4460   0.09878   0.09195  -0.0095   1.0000   0.2837
  -8.500  -0.4499   0.10210   0.09521  -0.0100   1.0000   0.2721
  -8.750  -0.4560   0.10566   0.09872  -0.0105   1.0000   0.2597
  -9.000  -0.4658   0.10952   0.10255  -0.0113   1.0000   0.2470
  -9.250  -0.4755   0.11339   0.10639  -0.0121   1.0000   0.2336
  -9.500  -0.4664   0.11500   0.10791  -0.0110   1.0000   0.2229
  -9.750  -0.4651   0.11801   0.11084  -0.0103   1.0000   0.2152
 -10.000  -0.4837   0.12321   0.11605  -0.0115   1.0000   0.2052
 -10.250  -0.4715   0.12441   0.11714  -0.0095   1.0000   0.1976
 -10.500  -0.4884   0.12978   0.12252  -0.0103   1.0000   0.1910
 -10.750  -0.4783   0.13106   0.12371  -0.0083   1.0000   0.1842
 -11.000  -0.5004   0.13734   0.13006  -0.0096   1.0000   0.1773
 -11.250  -0.4863   0.13789   0.13046  -0.0069   1.0000   0.1727
 -11.500  -0.5011   0.14256   0.13520  -0.0074   1.0000   0.1651
 -11.750  -0.5013   0.14584   0.13840  -0.0060   1.0000   0.1620
 -12.000  -0.4986   0.14775   0.14026  -0.0043   1.0000   0.1562
 -12.250  -0.5267   0.15588   0.14844  -0.0062   1.0000   0.1495
 -12.500  -0.5127   0.15557   0.14803  -0.0030   1.0000   0.1476
 -12.750  -0.5129   0.15774   0.15016  -0.0015   1.0000   0.1419
 -13.000  -0.5397   0.16617   0.15863  -0.0031   1.0000   0.1355
 -13.250  -0.5284   0.16571   0.15809  -0.0001   1.0000   0.1339
 -13.500  -0.5285   0.16760   0.15993   0.0017   1.0000   0.1286
 -13.750  -0.5577   0.17722   0.16961  -0.0001   1.0000   0.1217
 -14.000  -0.5487   0.17668   0.16899   0.0028   1.0000   0.1208
 -14.250  -0.5465   0.17757   0.16983   0.0052   1.0000   0.1175
 -14.500  -0.5529   0.18063   0.17288   0.0064   1.0000   0.1128
 -14.750  -0.5843   0.19233   0.18464   0.0044   1.0000   0.1080
 -15.000  -0.5764   0.19117   0.18341   0.0074   1.0000   0.1074
 -15.250  -0.5740   0.19125   0.18344   0.0101   1.0000   0.1056
 -15.500  -0.5783   0.19353   0.18574   0.0120   1.0000   0.1021
 -15.750  -0.5862   0.19680   0.18900   0.0132   1.0000   0.0987
 -16.000  -0.6012   0.20289   0.19512   0.0131   1.0000   0.0953
 -16.250  -0.6133   0.20928   0.20148   0.0139   1.0000   0.0939
 -16.500  -0.6114   0.20847   0.20062   0.0169   1.0000   0.0930
 -16.750  -0.6149   0.20978   0.20190   0.0193   1.0000   0.0908
 -17.000  -0.6217   0.21248   0.20459   0.0211   1.0000   0.0877
 -17.250  -0.6301   0.21580   0.20791   0.0224   1.0000   0.0849
 -17.500  -0.6412   0.22044   0.21256   0.0231   1.0000   0.0824
 -17.750  -0.6607   0.23140   0.22353   0.0226   1.0000   0.0806
 -18.000  -0.6604   0.23009   0.22218   0.0256   1.0000   0.0802
 -18.250  -0.6626   0.22978   0.22183   0.0285   1.0000   0.0791
 -18.500  -0.6683   0.23139   0.22341   0.0309   1.0000   0.0770
 -18.750  -0.6758   0.23406   0.22608   0.0327   1.0000   0.0746
 -19.000  -0.6842   0.23715   0.22917   0.0343   1.0000   0.0721
 -19.250  -0.6940   0.24114   0.23322   0.0355   1.0000   0.0696
 -19.500  -0.7162   0.25602   0.24814   0.0341   1.0000   0.0673
 -19.750  -0.7171   0.25407   0.24615   0.0371   1.0000   0.0671
 -20.000  -0.7197   0.25278   0.24483   0.0402   1.0000   0.0665
