  
       XFOIL         Version 6.99
  
 Calculated polar for: davissm                                         
  
 1 1 Reynolds number fixed          Mach number fixed         
  
 xtrf =   1.000 (top)        1.000 (bottom)  
 Mach =   0.000     Re =     0.050 e 6     Ncrit =   9.000
  
   alpha    CL        CD       CDp       CM     Top_Xtr  Bot_Xtr
  ------ -------- --------- --------- -------- -------- --------
   0.000   0.2666   0.04122   0.03215  -0.1049   1.0000   0.1974
   0.250   0.3019   0.04037   0.03083  -0.1071   1.0000   0.1807
   0.500   0.3352   0.03998   0.02988  -0.1087   1.0000   0.1708
   0.750   0.3655   0.03979   0.02938  -0.1101   1.0000   0.1698
   1.000   0.3941   0.03989   0.02927  -0.1115   1.0000   0.1778
   1.250   0.4212   0.04022   0.02926  -0.1122   1.0000   0.1826
   1.500   0.4575   0.04052   0.02930  -0.1145   0.9973   0.1908
   1.750   0.5150   0.04069   0.02940  -0.1207   0.9881   0.2282
   2.000   0.5686   0.03911   0.02963  -0.1264   0.9788   0.9584
   2.250   0.6136   0.04017   0.02971  -0.1298   0.9662   1.0000
   2.500   0.6543   0.04123   0.03052  -0.1334   0.9528   1.0000
   2.750   0.6922   0.04226   0.03143  -0.1365   0.9389   1.0000
   3.000   0.7286   0.04327   0.03237  -0.1392   0.9246   1.0000
   3.250   0.7635   0.04426   0.03333  -0.1415   0.9102   1.0000
   3.500   0.7974   0.04523   0.03434  -0.1435   0.8956   1.0000
   3.750   0.8308   0.04615   0.03531  -0.1453   0.8810   1.0000
   4.000   0.8639   0.04704   0.03627  -0.1469   0.8662   1.0000
   4.250   0.8963   0.04790   0.03723  -0.1483   0.8514   1.0000
   4.500   0.9283   0.04872   0.03822  -0.1495   0.8367   1.0000
   4.750   0.9502   0.04982   0.03945  -0.1492   0.8205   1.0000
   5.000   0.9748   0.05085   0.04065  -0.1492   0.8050   1.0000
   5.250   0.9999   0.05188   0.04186  -0.1492   0.7897   1.0000
   5.500   1.0247   0.05293   0.04316  -0.1492   0.7747   1.0000
   5.750   1.0506   0.05374   0.04420  -0.1489   0.7584   1.0000
   6.000   1.1217   0.04934   0.04025  -0.1495   0.7294   1.0000
   6.250   1.2508   0.03610   0.02793  -0.1495   0.6897   1.0000
   6.500   1.2914   0.02948   0.02158  -0.1409   0.6143   1.0000
   6.750   1.2900   0.02833   0.01979  -0.1302   0.4643   1.0000
   7.000   1.2707   0.03122   0.02097  -0.1213   0.2600   1.0000
   7.250   1.2596   0.03459   0.02343  -0.1156   0.1897   1.0000
   7.500   1.2589   0.03723   0.02576  -0.1112   0.1643   1.0000
   7.750   1.2651   0.03972   0.02803  -0.1077   0.1454   1.0000
   8.000   1.3042   0.04213   0.03034  -0.1080   0.1268   1.0000
   8.100   1.3404   0.04369   0.03171  -0.1111   0.1175   1.0000
   8.200   1.3639   0.04502   0.03302  -0.1125   0.1111   1.0000
   8.500   1.4296   0.05023   0.03853  -0.1160   0.1045   1.0000
   8.750   1.4540   0.05359   0.04238  -0.1148   0.1000   1.0000
   9.000   1.4773   0.05753   0.04671  -0.1136   0.0977   1.0000
   9.250   1.4923   0.06167   0.05150  -0.1110   0.0990   1.0000
   9.500   1.5012   0.06611   0.05656  -0.1080   0.1013   1.0000
   9.750   1.5071   0.07089   0.06184  -0.1049   0.1037   1.0000
  10.000   1.5102   0.07588   0.06723  -0.1020   0.1054   1.0000
  10.250   1.5144   0.08143   0.07308  -0.0997   0.1066   1.0000
  10.500   1.4903   0.08427   0.07662  -0.0937   0.1098   1.0000
  10.750   1.4551   0.08828   0.08114  -0.0879   0.1133   1.0000
  11.000   1.4283   0.09263   0.08576  -0.0837   0.1160   1.0000
  11.250   1.4088   0.09767   0.09099  -0.0810   0.1182   1.0000
  11.500   1.4044   0.10363   0.09711  -0.0799   0.1217   1.0000
  11.750   1.3372   0.10884   0.10262  -0.0790   0.1239   1.0000
  12.000   1.2872   0.11721   0.11113  -0.0825   0.1255   1.0000
  12.250   1.2433   0.12802   0.12198  -0.0893   0.1275   1.0000
  12.750   0.9739   0.13447   0.12859  -0.0762   0.1360   1.0000
  12.750   0.9739   0.13447   0.12859  -0.0762   0.1360   1.0000
  12.850   0.9846   0.13461   0.12876  -0.0745   0.1348   1.0000
  13.250   1.1147   0.19105   0.18457  -0.1410   0.2921   1.0000
  13.500   1.1330   0.19741   0.19100  -0.1412   0.2880   1.0000
  13.750   1.1208   0.19969   0.19320  -0.1439   0.2813   1.0000
  13.750   1.1208   0.19970   0.19322  -0.1439   0.2813   1.0000
  13.850   1.1245   0.20135   0.19487  -0.1441   0.2775   1.0000
  13.950   1.1372   0.20440   0.19797  -0.1434   0.2742   1.0000
  14.250   1.1310   0.20768   0.20120  -0.1462   0.2650   1.0000
  14.500   1.1575   0.21563   0.20924  -0.1452   0.2589   1.0000
  14.250   1.1310   0.20769   0.20120  -0.1462   0.2650   1.0000
  14.350   1.1367   0.20966   0.20319  -0.1463   0.2621   1.0000
  14.450   1.1475   0.21280   0.20637  -0.1458   0.2599   1.0000
  14.750   1.1419   0.21567   0.20919  -0.1489   0.2506   1.0000
  15.000   1.1637   0.22305   0.21663  -0.1481   0.2440   1.0000
  15.250   1.1556   0.22359   0.21712  -0.1513   0.2346   1.0000
  15.500   1.1630   0.22801   0.22154  -0.1525   0.2276   1.0000
  15.750   1.1837   0.23491   0.22854  -0.1512   0.2160   1.0000
  16.000   1.1737   0.23447   0.22804  -0.1555   0.2077   1.0000
  16.250   1.1818   0.23868   0.23224  -0.1565   0.1993   1.0000
  16.500   1.2090   0.24795   0.24162  -0.1539   0.1886   1.0000
  16.750   1.1930   0.24541   0.23897  -0.1601   0.1832   1.0000
  17.000   1.2182   0.25467   0.24832  -0.1575   0.1747   1.0000
  17.250   1.2063   0.25261   0.24618  -0.1636   0.1695   1.0000
  17.500   1.2334   0.26318   0.25685  -0.1603   0.1612   1.0000
  17.750   1.2207   0.26014   0.25371  -0.1671   0.1575   1.0000
  18.000   1.2327   0.26472   0.25834  -0.1673   0.1493   1.0000
  18.250   1.2364   0.26796   0.26155  -0.1702   0.1455   1.0000
  18.500   1.2422   0.27049   0.26409  -0.1725   0.1377   1.0000
  18.750   1.2537   0.27651   0.27016  -0.1729   0.1332   1.0000
  19.000   1.2541   0.27711   0.27074  -0.1773   0.1275   1.0000
  19.250   1.2710   0.28461   0.27832  -0.1757   0.1215   1.0000
  19.500   1.2734   0.28687   0.28054  -0.1795   0.1197   1.0000
  19.750   1.2752   0.28766   0.28130  -0.1840   0.1152   1.0000
  20.000   1.2843   0.29156   0.28524  -0.1853   0.1105   1.0000
   0.000   0.2666   0.04122   0.03215  -0.1049   1.0000   0.1974
  -0.250   0.2260   0.04237   0.03389  -0.1015   1.0000   0.2253
  -1.250  -0.0865   0.04877   0.04293  -0.0393   1.0000   0.5558
  -1.950  -0.1020   0.05579   0.04968  -0.0520   1.0000   0.3677
  -2.250  -0.1181   0.05892   0.05274  -0.0539   1.0000   0.3201
  -2.100  -0.1115   0.05726   0.05113  -0.0525   1.0000   0.3386
  -2.200  -0.1181   0.05825   0.05210  -0.0527   1.0000   0.3229
  -2.500  -0.1322   0.06191   0.05567  -0.0549   1.0000   0.2890
  -2.750  -0.1597   0.06389   0.05773  -0.0512   1.0000   0.2481
  -2.500  -0.1322   0.06191   0.05567  -0.0549   1.0000   0.2890
  -2.600  -0.1394   0.06290   0.05667  -0.0547   1.0000   0.2748
  -2.700  -0.1593   0.06331   0.05716  -0.0501   1.0000   0.2516
  -3.000  -0.1703   0.06728   0.06104  -0.0528   1.0000   0.2304
  -2.750  -0.1597   0.06389   0.05773  -0.0512   1.0000   0.2482
  -2.850  -0.1596   0.06558   0.05935  -0.0533   1.0000   0.2449
  -2.950  -0.1702   0.06633   0.06013  -0.0519   1.0000   0.2316
  -3.250  -0.2024   0.06936   0.06326  -0.0467   1.0000   0.2040
  -3.500  -0.2227   0.07224   0.06617  -0.0444   1.0000   0.1889
  -3.750  -0.2456   0.07508   0.06905  -0.0405   1.0000   0.1751
  -3.500  -0.2227   0.07224   0.06617  -0.0444   1.0000   0.1890
  -3.600  -0.2210   0.07394   0.06782  -0.0469   1.0000   0.1873
  -3.700  -0.2446   0.07445   0.06843  -0.0398   1.0000   0.1767
  -4.000  -0.2688   0.07798   0.07199  -0.0357   1.0000   0.1635
  -4.250  -0.2699   0.08166   0.07560  -0.0401   1.0000   0.1581
  -4.500  -0.2990   0.08378   0.07780  -0.0314   1.0000   0.1469
  -4.750  -0.2945   0.08821   0.08214  -0.0381   1.0000   0.1430
  -5.250  -0.3193   0.09391   0.08786  -0.0340   1.0000   0.1285
  -5.500  -0.3392   0.09463   0.08858  -0.0238   1.0000   0.1228
  -5.750  -0.3439   0.09716   0.09108  -0.0240   1.0000   0.1172
  -6.000  -0.3438   0.10210   0.09598  -0.0300   1.0000   0.1140
  -6.250  -0.3493   0.10365   0.09746  -0.0260   1.0000   0.1125
  -6.500  -0.3495   0.10409   0.09783  -0.0228   1.0000   0.1097
  -6.750  -0.3478   0.10571   0.09938  -0.0229   1.0000   0.1065
  -7.000  -0.3467   0.10784   0.10144  -0.0240   1.0000   0.1035
  -7.250  -0.3520   0.11219   0.10577  -0.0269   1.0000   0.1001
  -7.500  -0.3561   0.11724   0.11076  -0.0295   1.0000   0.0987
  -7.750  -0.3471   0.11677   0.11016  -0.0286   1.0000   0.0981
  -8.000  -0.3347   0.11653   0.10978  -0.0299   1.0000   0.0973
  -8.250  -0.3248   0.11684   0.10996  -0.0314   1.0000   0.0958
  -8.500  -0.3208   0.11812   0.11114  -0.0323   1.0000   0.0936
  -8.750  -0.3205   0.12011   0.11305  -0.0329   1.0000   0.0910
  -8.500  -0.3208   0.11812   0.11114  -0.0323   1.0000   0.0936
  -8.600  -0.3202   0.11885   0.11183  -0.0325   1.0000   0.0925
  -8.700  -0.3203   0.11967   0.11262  -0.0328   1.0000   0.0915
  -9.000  -0.3234   0.12277   0.11567  -0.0334   1.0000   0.0884
  -9.250  -0.3546   0.13471   0.12771  -0.0351   1.0000   0.0844
  -9.500  -0.3450   0.13407   0.12693  -0.0351   1.0000   0.0841
  -9.750  -0.3384   0.13361   0.12635  -0.0345   1.0000   0.0836
 -10.000  -0.3351   0.13372   0.12636  -0.0335   1.0000   0.0825
 -10.250  -0.3361   0.13510   0.12767  -0.0326   1.0000   0.0802
 -10.500  -0.3398   0.13744   0.12997  -0.0320   1.0000   0.0775
 -10.750  -0.3452   0.14031   0.13280  -0.0316   1.0000   0.0748
 -11.000  -0.3531   0.14420   0.13667  -0.0316   1.0000   0.0723
 -11.250  -0.3776   0.15639   0.14889  -0.0333   1.0000   0.0700
 -11.500  -0.3750   0.15618   0.14861  -0.0317   1.0000   0.0698
 -11.750  -0.3737   0.15611   0.14847  -0.0301   1.0000   0.0694
 -12.000  -0.3744   0.15652   0.14885  -0.0284   1.0000   0.0687
 -12.250  -0.3778   0.15796   0.15025  -0.0270   1.0000   0.0674
 -12.500  -0.3830   0.16024   0.15251  -0.0257   1.0000   0.0658
 -12.750  -0.3889   0.16293   0.15517  -0.0246   1.0000   0.0640
 -13.000  -0.3953   0.16581   0.15803  -0.0236   1.0000   0.0624
 -13.250  -0.4022   0.16887   0.16107  -0.0226   1.0000   0.0608
 -13.500  -0.4096   0.17223   0.16442  -0.0217   1.0000   0.0593
 -13.750  -0.4183   0.17647   0.16866  -0.0211   1.0000   0.0578
 -14.250  -0.4456   0.19248   0.18466  -0.0206   1.0000   0.0558
 -14.500  -0.4461   0.19180   0.18393  -0.0186   1.0000   0.0556
 -14.750  -0.4482   0.19141   0.18350  -0.0165   1.0000   0.0552
 -15.000  -0.4523   0.19174   0.18380  -0.0144   1.0000   0.0545
 -15.250  -0.4585   0.19330   0.18537  -0.0126   1.0000   0.0533
 -15.500  -0.4657   0.19571   0.18777  -0.0109   1.0000   0.0518
 -15.750  -0.4733   0.19847   0.19052  -0.0094   1.0000   0.0504
 -16.000  -0.4811   0.20138   0.19343  -0.0079   1.0000   0.0491
 -16.250  -0.4891   0.20440   0.19644  -0.0064   1.0000   0.0480
 -16.500  -0.4972   0.20752   0.19955  -0.0049   1.0000   0.0469
 -16.750  -0.5055   0.21083   0.20285  -0.0035   1.0000   0.0458
 -17.000  -0.5141   0.21452   0.20654  -0.0022   1.0000   0.0448
 -17.250  -0.5236   0.21953   0.21156  -0.0012   1.0000   0.0438
