  
       XFOIL         Version 6.99
  
 Calculated polar for: SG6043                                          
  
 1 1 Reynolds number fixed          Mach number fixed         
  
 xtrf =   1.000 (top)        1.000 (bottom)  
 Mach =   0.000     Re =     0.050 e 6     Ncrit =   9.000
  
   alpha    CL        CD       CDp       CM     Top_Xtr  Bot_Xtr
  ------ -------- --------- --------- -------- -------- --------
   0.000   0.1206   0.04115   0.03103  -0.0916   1.0000   0.1571
   0.250   0.1472   0.04085   0.03053  -0.0921   1.0000   0.1727
   0.500   0.1737   0.04057   0.03031  -0.0926   1.0000   0.1989
   0.750   0.2018   0.04050   0.03023  -0.0931   1.0000   0.2442
   1.000   0.2404   0.03997   0.03048  -0.0954   1.0000   0.3864
   1.250   0.2475   0.03855   0.03032  -0.0908   1.0000   1.0000
   1.500   0.2674   0.03971   0.03103  -0.0909   1.0000   1.0000
   1.750   0.2863   0.04093   0.03194  -0.0910   1.0000   1.0000
   2.000   0.3597   0.04374   0.03424  -0.1007   0.9671   1.0000
   2.250   0.4061   0.04546   0.03568  -0.1052   0.9483   1.0000
   2.500   0.4400   0.04675   0.03679  -0.1076   0.9319   1.0000
   2.750   0.4743   0.04806   0.03795  -0.1100   0.9161   1.0000
   3.000   0.5083   0.04934   0.03910  -0.1122   0.9003   1.0000
   3.250   0.5415   0.05058   0.04024  -0.1141   0.8846   1.0000
   3.500   0.5742   0.05178   0.04136  -0.1159   0.8689   1.0000
   3.750   0.6061   0.05294   0.04246  -0.1174   0.8532   1.0000
   4.000   0.6376   0.05407   0.04356  -0.1188   0.8374   1.0000
   4.250   0.6692   0.05514   0.04461  -0.1201   0.8214   1.0000
   4.500   0.7009   0.05615   0.04562  -0.1213   0.8052   1.0000
   4.750   0.7321   0.05710   0.04659  -0.1223   0.7890   1.0000
   5.000   0.7642   0.05793   0.04745  -0.1232   0.7725   1.0000
   5.250   0.7969   0.05864   0.04822  -0.1240   0.7560   1.0000
   5.500   0.8301   0.05922   0.04886  -0.1247   0.7395   1.0000
   5.750   0.8652   0.05956   0.04928  -0.1253   0.7229   1.0000
   6.000   0.9019   0.05965   0.04946  -0.1258   0.7065   1.0000
   6.250   0.9263   0.06019   0.05012  -0.1252   0.6881   1.0000
   6.500   0.9486   0.06079   0.05082  -0.1242   0.6687   1.0000
   6.750   0.9814   0.06059   0.05075  -0.1238   0.6504   1.0000
   7.000   1.0210   0.05964   0.04998  -0.1234   0.6327   1.0000
   7.250   1.0677   0.05768   0.04822  -0.1229   0.6156   1.0000
   7.500   1.1220   0.05447   0.04525  -0.1222   0.5992   1.0000
   7.750   1.1964   0.04869   0.03974  -0.1219   0.5835   1.0000
   8.000   1.2896   0.04181   0.03317  -0.1238   0.5599   1.0000
   8.250   1.3795   0.03667   0.02811  -0.1273   0.5189   1.0000
   8.500   1.4079   0.03619   0.02753  -0.1253   0.4791   1.0000
   8.750   1.4387   0.03611   0.02718  -0.1239   0.4363   1.0000
   9.000   1.4519   0.03714   0.02805  -0.1208   0.3994   1.0000
   9.250   1.4690   0.03837   0.02905  -0.1185   0.3644   1.0000
   9.500   1.4844   0.03988   0.03039  -0.1163   0.3334   1.0000
   9.750   1.5010   0.04162   0.03201  -0.1144   0.3062   1.0000
  10.000   1.5246   0.04339   0.03352  -0.1136   0.2803   1.0000
  10.250   1.5351   0.04548   0.03572  -0.1112   0.2613   1.0000
  10.500   1.5492   0.04764   0.03794  -0.1093   0.2436   1.0000
  10.750   1.5646   0.04996   0.04035  -0.1077   0.2280   1.0000
  11.000   1.5796   0.05244   0.04292  -0.1062   0.2143   1.0000
  11.250   1.5970   0.05511   0.04566  -0.1051   0.2020   1.0000
  11.500   1.6201   0.05784   0.04836  -0.1048   0.1897   1.0000
  11.750   1.6047   0.06088   0.05194  -0.0995   0.1852   1.0000
  12.000   1.6299   0.06395   0.05499  -0.0997   0.1747   1.0000
  12.250   1.6065   0.06716   0.05867  -0.0939   0.1723   1.0000
  12.500   1.5843   0.07073   0.06264  -0.0891   0.1698   1.0000
  12.750   1.5650   0.07459   0.06681  -0.0852   0.1672   1.0000
  13.000   1.5853   0.07798   0.07020  -0.0850   0.1598   1.0000
  13.250   1.5533   0.08260   0.07516  -0.0810   0.1595   1.0000
  13.500   1.5193   0.08799   0.08086  -0.0782   0.1595   1.0000
  13.750   1.4835   0.09427   0.08741  -0.0767   0.1598   1.0000
  14.000   1.4469   0.10152   0.09488  -0.0766   0.1604   1.0000
  14.000   1.4378   0.10217   0.09558  -0.0768   0.1615   1.0000
  14.100   1.4291   0.10494   0.09840  -0.0771   0.1610   1.0000
  14.500   1.1236   0.17984   0.17286  -0.1246   0.2347   1.0000
  14.250   1.1084   0.17514   0.16805  -0.1244   0.2375   1.0000
  14.350   1.1147   0.17690   0.16987  -0.1245   0.2364   1.0000
  14.450   1.1209   0.17884   0.17185  -0.1246   0.2357   1.0000
  14.750   1.0560   0.19707   0.18989  -0.1423   0.3193   1.0000
  15.000   1.0816   0.20346   0.19641  -0.1421   0.3117   1.0000
  15.250   1.0683   0.20457   0.19748  -0.1451   0.3040   1.0000
  15.500   1.0960   0.21156   0.20460  -0.1446   0.2962   1.0000
  15.750   1.0820   0.21186   0.20486  -0.1479   0.2878   1.0000
  16.000   1.1089   0.21919   0.21233  -0.1473   0.2807   1.0000
  16.250   1.0949   0.21915   0.21225  -0.1510   0.2733   1.0000
  16.500   1.1226   0.22678   0.22001  -0.1501   0.2653   1.0000
  16.750   1.1089   0.22622   0.21940  -0.1540   0.2577   1.0000
  17.000   1.1423   0.23573   0.22907  -0.1524   0.2503   1.0000
  17.250   1.1229   0.23356   0.22681  -0.1574   0.2449   1.0000
  17.500   1.1461   0.24010   0.23349  -0.1565   0.2358   1.0000
  17.750   1.1380   0.24076   0.23408  -0.1605   0.2310   1.0000
  18.000   1.1477   0.24427   0.23767  -0.1617   0.2232   1.0000
  18.250   1.1618   0.25046   0.24391  -0.1625   0.2190   1.0000
  18.500   1.1577   0.25059   0.24402  -0.1661   0.2114   1.0000
  18.750   1.1883   0.26142   0.25501  -0.1640   0.2048   1.0000
  19.000   1.1727   0.25791   0.25141  -0.1697   0.2009   1.0000
  19.250   1.1805   0.26099   0.25453  -0.1713   0.1941   1.0000
  19.500   1.2014   0.26971   0.26336  -0.1707   0.1896   1.0000
  19.750   1.1924   0.26750   0.26110  -0.1757   0.1844   1.0000
  20.000   1.2039   0.27152   0.26518  -0.1766   0.1780   1.0000
   0.000   0.1206   0.04115   0.03103  -0.0916   1.0000   0.1571
  -0.250   0.0910   0.04166   0.03199  -0.0906   1.0000   0.1484
  -0.500   0.0629   0.04242   0.03301  -0.0897   1.0000   0.1427
  -0.750   0.0280   0.04375   0.03490  -0.0877   1.0000   0.1445
  -1.000  -0.0102   0.04559   0.03731  -0.0845   1.0000   0.1480
  -1.250  -0.0466   0.04801   0.04011  -0.0813   1.0000   0.1539
  -1.750  -0.3443   0.06896   0.06403  -0.0014   1.0000   0.4367
  -1.750  -0.3443   0.06896   0.06403  -0.0014   1.0000   0.4367
  -1.850  -0.3439   0.06974   0.06477  -0.0038   1.0000   0.4221
  -1.950  -0.3434   0.07050   0.06550  -0.0066   1.0000   0.4120
  -2.250  -0.3501   0.07280   0.06773  -0.0100   1.0000   0.3634
  -2.500  -0.3589   0.07514   0.07003  -0.0110   1.0000   0.3319
  -2.750  -0.3654   0.07756   0.07241  -0.0136   1.0000   0.3112
  -3.000  -0.3723   0.08019   0.07499  -0.0155   1.0000   0.2929
  -3.250  -0.3801   0.08301   0.07778  -0.0166   1.0000   0.2754
  -3.500  -0.3899   0.08571   0.08046  -0.0157   1.0000   0.2588
  -3.750  -0.3998   0.08841   0.08316  -0.0133   1.0000   0.2427
  -4.250  -0.4083   0.09486   0.08952  -0.0179   1.0000   0.2238
  -4.500  -0.4152   0.09668   0.09135  -0.0102   1.0000   0.2096
  -4.750  -0.4153   0.09955   0.09415  -0.0086   1.0000   0.2033
  -5.000  -0.4152   0.10161   0.09617  -0.0083   1.0000   0.1944
  -4.750  -0.4153   0.09955   0.09415  -0.0086   1.0000   0.2033
  -4.850  -0.4138   0.10019   0.09477  -0.0073   1.0000   0.1994
  -4.950  -0.4144   0.10110   0.09567  -0.0078   1.0000   0.1956
  -5.250  -0.4206   0.10569   0.10019  -0.0128   1.0000   0.1890
  -5.500  -0.4067   0.10620   0.10062  -0.0081   1.0000   0.1828
  -5.750  -0.4097   0.10879   0.10317  -0.0104   1.0000   0.1758
  -6.000  -0.4135   0.11276   0.10708  -0.0128   1.0000   0.1719
  -6.250  -0.3922   0.11264   0.10684  -0.0120   1.0000   0.1693
  -6.500  -0.3755   0.11323   0.10733  -0.0141   1.0000   0.1655
  -6.750  -0.3712   0.11503   0.10906  -0.0161   1.0000   0.1609
  -7.000  -0.3972   0.12189   0.11595  -0.0177   1.0000   0.1554
  -7.250  -0.3715   0.12103   0.11495  -0.0197   1.0000   0.1546
  -7.500  -0.3515   0.12068   0.11448  -0.0211   1.0000   0.1527
  -7.750  -0.3402   0.12150   0.11520  -0.0225   1.0000   0.1488
  -8.000  -0.3375   0.12341   0.11704  -0.0241   1.0000   0.1447
  -8.250  -0.3748   0.13285   0.12655  -0.0264   1.0000   0.1392
  -8.500  -0.3532   0.13185   0.12541  -0.0276   1.0000   0.1387
  -8.750  -0.3336   0.13090   0.12433  -0.0284   1.0000   0.1376
  -9.000  -0.3208   0.13099   0.12431  -0.0292   1.0000   0.1348
  -9.250  -0.3159   0.13237   0.12561  -0.0303   1.0000   0.1316
  -9.500  -0.3156   0.13451   0.12769  -0.0316   1.0000   0.1279
  -9.750  -0.3302   0.13976   0.13294  -0.0337   1.0000   0.1240
 -10.000  -0.3379   0.14477   0.13790  -0.0349   1.0000   0.1225
 -10.250  -0.3216   0.14362   0.13663  -0.0351   1.0000   0.1217
 -10.500  -0.3117   0.14351   0.13641  -0.0354   1.0000   0.1200
 -10.750  -0.3076   0.14469   0.13752  -0.0358   1.0000   0.1169
 -11.000  -0.3077   0.14668   0.13945  -0.0364   1.0000   0.1139
 -11.250  -0.3110   0.14931   0.14203  -0.0372   1.0000   0.1109
 -11.500  -0.3448   0.16110   0.15387  -0.0399   1.0000   0.1067
 -11.750  -0.3325   0.15995   0.15260  -0.0395   1.0000   0.1064
 -12.000  -0.3219   0.15887   0.15142  -0.0389   1.0000   0.1056
 -12.250  -0.3164   0.15894   0.15141  -0.0384   1.0000   0.1036
 -12.500  -0.3167   0.16057   0.15298  -0.0383   1.0000   0.1008
 -12.750  -0.3196   0.16284   0.15520  -0.0384   1.0000   0.0977
 -13.000  -0.3250   0.16576   0.15809  -0.0388   1.0000   0.0950
 -13.250  -0.3389   0.17170   0.16404  -0.0399   1.0000   0.0924
 -13.500  -0.3526   0.17889   0.17118  -0.0404   1.0000   0.0912
 -13.750  -0.3455   0.17774   0.16996  -0.0395   1.0000   0.0908
 -14.000  -0.3419   0.17738   0.16953  -0.0385   1.0000   0.0899
 -14.250  -0.3422   0.17828   0.17037  -0.0376   1.0000   0.0883
 -14.500  -0.3453   0.18023   0.17228  -0.0370   1.0000   0.0861
 -14.750  -0.3498   0.18257   0.17459  -0.0366   1.0000   0.0841
 -15.000  -0.3551   0.18522   0.17721  -0.0363   1.0000   0.0821
 -15.250  -0.3617   0.18824   0.18021  -0.0361   1.0000   0.0802
 -15.500  -0.3710   0.19256   0.18451  -0.0363   1.0000   0.0786
 -15.750  -0.3928   0.20410   0.19605  -0.0373   1.0000   0.0772
 -16.000  -0.3888   0.20257   0.19446  -0.0359   1.0000   0.0769
 -16.250  -0.3876   0.20184   0.19367  -0.0344   1.0000   0.0765
 -16.500  -0.3889   0.20198   0.19377  -0.0330   1.0000   0.0755
 -16.750  -0.3929   0.20343   0.19518  -0.0319   1.0000   0.0741
 -17.000  -0.3983   0.20557   0.19730  -0.0309   1.0000   0.0724
 -17.250  -0.4043   0.20800   0.19971  -0.0300   1.0000   0.0708
 -17.500  -0.4108   0.21057   0.20226  -0.0292   1.0000   0.0693
 -17.750  -0.4178   0.21345   0.20512  -0.0285   1.0000   0.0677
 -18.000  -0.4262   0.21722   0.20888  -0.0281   1.0000   0.0662
 -18.500  -0.4463   0.22862   0.22024  -0.0274   1.0000   0.0644
 -18.750  -0.4474   0.22738   0.21895  -0.0255   1.0000   0.0640
 -19.000  -0.4511   0.22761   0.21915  -0.0237   1.0000   0.0634
 -19.250  -0.4566   0.22899   0.22052  -0.0222   1.0000   0.0623
 -19.500  -0.4630   0.23108   0.22259  -0.0209   1.0000   0.0612
 -19.250  -0.4566   0.22899   0.22052  -0.0222   1.0000   0.0623
 -19.350  -0.4591   0.22978   0.22131  -0.0217   1.0000   0.0618
 -19.450  -0.4617   0.23064   0.22216  -0.0211   1.0000   0.0614
 -19.750  -0.4698   0.23342   0.22492  -0.0196   1.0000   0.0600
 -20.000  -0.4767   0.23590   0.22738  -0.0184   1.0000   0.0588
