  
       XFOIL         Version 6.99
  
 Calculated polar for: cr001sm                                         
  
 1 1 Reynolds number fixed          Mach number fixed         
  
 xtrf =   1.000 (top)        1.000 (bottom)  
 Mach =   0.000     Re =     0.050 e 6     Ncrit =   9.000
  
   alpha    CL        CD       CDp       CM     Top_Xtr  Bot_Xtr
  ------ -------- --------- --------- -------- -------- --------
   0.000   0.1713   0.02177   0.01310  -0.0651   1.0000   1.0000
   0.250   0.1916   0.02239   0.01323  -0.0647   1.0000   1.0000
   0.500   0.2112   0.02306   0.01357  -0.0644   1.0000   1.0000
   0.750   0.2301   0.02379   0.01402  -0.0641   1.0000   1.0000
   1.000   0.2485   0.02458   0.01459  -0.0639   1.0000   1.0000
   1.250   0.2664   0.02544   0.01526  -0.0637   1.0000   1.0000
   1.500   0.2839   0.02635   0.01602  -0.0636   1.0000   1.0000
   1.750   0.3299   0.02777   0.01724  -0.0687   0.9868   1.0000
   2.000   0.3771   0.02907   0.01840  -0.0739   0.9702   1.0000
   2.250   0.4213   0.03021   0.01945  -0.0783   0.9529   1.0000
   2.500   0.4663   0.03128   0.02046  -0.0826   0.9358   1.0000
   2.750   0.5137   0.03225   0.02141  -0.0870   0.9189   1.0000
   3.000   0.5506   0.03304   0.02221  -0.0895   0.8998   1.0000
   3.250   0.5913   0.03375   0.02298  -0.0923   0.8810   1.0000
   3.500   0.6395   0.03424   0.02354  -0.0959   0.8628   1.0000
   3.750   0.6739   0.03474   0.02414  -0.0972   0.8419   1.0000
   4.000   0.7203   0.03485   0.02442  -0.0997   0.8221   1.0000
   4.250   0.7635   0.03481   0.02454  -0.1015   0.8015   1.0000
   4.500   0.8089   0.03444   0.02437  -0.1030   0.7804   1.0000
   4.750   0.8669   0.03326   0.02351  -0.1054   0.7606   1.0000
   5.000   0.9098   0.03242   0.02290  -0.1056   0.7372   1.0000
   5.250   0.9542   0.03132   0.02205  -0.1055   0.7126   1.0000
   5.500   1.0004   0.02993   0.02096  -0.1052   0.6855   1.0000
   5.750   1.0407   0.02881   0.02004  -0.1040   0.6538   1.0000
   6.000   1.0802   0.02778   0.01915  -0.1026   0.6179   1.0000
   6.250   1.1096   0.02746   0.01885  -0.1004   0.5770   1.0000
   6.500   1.1355   0.02749   0.01881  -0.0979   0.5331   1.0000
   6.750   1.1558   0.02796   0.01920  -0.0950   0.4876   1.0000
   7.000   1.1744   0.02863   0.01976  -0.0922   0.4420   1.0000
   7.250   1.1915   0.02949   0.02051  -0.0893   0.3967   1.0000
   7.500   1.2070   0.03054   0.02138  -0.0864   0.3518   1.0000
   7.750   1.2205   0.03182   0.02241  -0.0834   0.3067   1.0000
   8.000   1.2331   0.03348   0.02373  -0.0805   0.2617   1.0000
   8.250   1.2439   0.03556   0.02557  -0.0776   0.2187   1.0000
   8.500   1.2548   0.03795   0.02791  -0.0748   0.1823   1.0000
   8.750   1.2697   0.04064   0.03056  -0.0726   0.1539   1.0000
   9.000   1.2855   0.04359   0.03356  -0.0707   0.1336   1.0000
   9.250   1.3015   0.04688   0.03708  -0.0689   0.1198   1.0000
   9.500   1.3173   0.05017   0.04048  -0.0674   0.1089   1.0000
   9.750   1.3237   0.05426   0.04523  -0.0645   0.1044   1.0000
  10.000   1.3415   0.05816   0.04912  -0.0636   0.0978   1.0000
  10.250   1.3357   0.06229   0.05386  -0.0601   0.0957   1.0000
  10.500   1.3253   0.06645   0.05856  -0.0567   0.0942   1.0000
  10.750   1.3118   0.07077   0.06330  -0.0535   0.0935   1.0000
  11.000   1.2939   0.07504   0.06791  -0.0504   0.0935   1.0000
  11.250   1.2720   0.07927   0.07239  -0.0476   0.0939   1.0000
  11.500   1.2490   0.08392   0.07725  -0.0458   0.0945   1.0000
  11.750   1.2252   0.08913   0.08263  -0.0454   0.0953   1.0000
  12.000   1.2026   0.09497   0.08860  -0.0461   0.0961   1.0000
  12.250   1.1831   0.10135   0.09508  -0.0478   0.0969   1.0000
  12.250   1.1733   0.10195   0.09574  -0.0488   0.0982   1.0000
  12.350   1.1707   0.10433   0.09814  -0.0492   0.0978   1.0000
  12.450   1.1701   0.10679   0.10061  -0.0496   0.0974   1.0000
  12.500   1.1045   0.11817   0.11205  -0.0607   0.1113   1.0000
  12.600   1.1048   0.12046   0.11434  -0.0610   0.1107   1.0000
  13.250   0.9738   0.17412   0.16737  -0.1051   0.2591   1.0000
  13.500   0.9742   0.17809   0.17135  -0.1067   0.2523   1.0000
  13.750   0.9861   0.18384   0.17714  -0.1073   0.2465   1.0000
  14.000   1.0030   0.18945   0.18282  -0.1068   0.2335   1.0000
  14.250   0.9859   0.19080   0.18408  -0.1107   0.2294   1.0000
  14.500   1.0056   0.19690   0.19027  -0.1102   0.2205   1.0000
  14.750   0.9986   0.19967   0.19297  -0.1133   0.2172   1.0000
  15.000   1.0017   0.20298   0.19629  -0.1151   0.2098   1.0000
  15.250   1.0141   0.20872   0.20206  -0.1156   0.2045   1.0000
  15.500   1.0120   0.21071   0.20403  -0.1183   0.1964   1.0000
  15.750   1.0250   0.21640   0.20975  -0.1187   0.1905   1.0000
  16.000   1.0229   0.21825   0.21156  -0.1217   0.1838   1.0000
  16.250   1.0529   0.22859   0.22205  -0.1196   0.1779   1.0000
  16.500   1.0384   0.22696   0.22029  -0.1247   0.1755   1.0000
  16.750   1.0420   0.22974   0.22311  -0.1269   0.1692   1.0000
  17.000   1.0633   0.23819   0.23162  -0.1259   0.1638   1.0000
  17.250   1.0553   0.23744   0.23080  -0.1306   0.1601   1.0000
  17.500   1.0657   0.24150   0.23490  -0.1314   0.1529   1.0000
  17.750   1.0764   0.24727   0.24068  -0.1325   0.1495   1.0000
  18.000   1.0749   0.24794   0.24131  -0.1363   0.1450   1.0000
  18.250   1.0844   0.25193   0.24533  -0.1376   0.1400   1.0000
  18.500   1.1045   0.26176   0.25523  -0.1366   0.1367   1.0000
  18.750   1.0982   0.25967   0.25306  -0.1416   0.1346   1.0000
  19.000   1.1028   0.26200   0.25539  -0.1443   0.1299   1.0000
  19.250   1.1152   0.26713   0.26057  -0.1447   0.1252   1.0000
  19.500   1.1253   0.27309   0.26653  -0.1459   0.1229   1.0000
  19.750   1.1245   0.27259   0.26599  -0.1502   0.1195   1.0000
  20.000   1.1323   0.27579   0.26925  -0.1520   0.1144   1.0000
   0.000   0.1713   0.02177   0.01310  -0.0651   1.0000   1.0000
  -0.250   0.1474   0.02470   0.01394  -0.0670   1.0000   0.2232
  -0.500   0.1187   0.02549   0.01450  -0.0666   1.0000   0.1726
  -0.750   0.0925   0.02609   0.01528  -0.0669   1.0000   0.1527
  -1.000   0.0677   0.02684   0.01617  -0.0674   1.0000   0.1396
  -1.250   0.0426   0.02782   0.01745  -0.0680   1.0000   0.1351
  -1.500   0.0165   0.02905   0.01903  -0.0683   1.0000   0.1330
  -1.750  -0.0089   0.03074   0.02079  -0.0682   1.0000   0.1286
  -2.000  -0.0377   0.03255   0.02311  -0.0678   1.0000   0.1283
  -2.250  -0.0750   0.03523   0.02671  -0.0660   1.0000   0.1400
  -2.500  -0.1203   0.03949   0.03186  -0.0617   1.0000   0.1687
  -2.500  -0.1203   0.03949   0.03186  -0.0617   1.0000   0.1687
  -3.000  -0.3479   0.05937   0.05419   0.0071   1.0000   0.4706
  -3.250  -0.3474   0.06160   0.05634   0.0015   1.0000   0.4280
  -3.500  -0.3500   0.06393   0.05859  -0.0027   1.0000   0.3948
  -3.750  -0.3536   0.06636   0.06096  -0.0057   1.0000   0.3654
  -4.000  -0.3575   0.06879   0.06336  -0.0073   1.0000   0.3392
  -4.250  -0.3620   0.07151   0.06601  -0.0109   1.0000   0.3197
  -4.500  -0.3648   0.07394   0.06837  -0.0106   1.0000   0.2989
  -4.750  -0.3676   0.07632   0.07070  -0.0115   1.0000   0.2813
  -5.000  -0.3695   0.07881   0.07312  -0.0125   1.0000   0.2665
  -5.250  -0.3706   0.08135   0.07558  -0.0135   1.0000   0.2537
  -5.500  -0.3750   0.08448   0.07865  -0.0161   1.0000   0.2432
  -5.750  -0.3810   0.08785   0.08197  -0.0196   1.0000   0.2305
  -6.000  -0.3696   0.08845   0.08244  -0.0162   1.0000   0.2216
  -6.250  -0.3714   0.09142   0.08533  -0.0180   1.0000   0.2130
  -6.500  -0.3844   0.09598   0.08985  -0.0223   1.0000   0.2009
  -6.750  -0.3648   0.09561   0.08930  -0.0195   1.0000   0.1970
  -7.000  -0.3780   0.10011   0.09378  -0.0224   1.0000   0.1859
  -7.250  -0.3586   0.09999   0.09347  -0.0226   1.0000   0.1833
  -7.500  -0.3583   0.10211   0.09554  -0.0240   1.0000   0.1750
  -7.750  -0.3581   0.10503   0.09835  -0.0249   1.0000   0.1700
  -8.000  -0.3508   0.10613   0.09933  -0.0252   1.0000   0.1637
  -8.250  -0.3699   0.11194   0.10515  -0.0269   1.0000   0.1570
  -8.500  -0.3548   0.11164   0.10469  -0.0260   1.0000   0.1541
  -8.750  -0.3558   0.11384   0.10681  -0.0261   1.0000   0.1478
  -9.000  -0.3739   0.11999   0.11296  -0.0277   1.0000   0.1426
  -9.250  -0.3621   0.11975   0.11259  -0.0262   1.0000   0.1402
  -9.500  -0.3622   0.12172   0.11448  -0.0257   1.0000   0.1351
  -9.750  -0.3901   0.13033   0.12315  -0.0282   1.0000   0.1285
 -10.000  -0.3782   0.12973   0.12242  -0.0263   1.0000   0.1276
 -10.250  -0.3732   0.13041   0.12301  -0.0248   1.0000   0.1245
 -10.500  -0.3765   0.13289   0.12545  -0.0243   1.0000   0.1201
 -10.750  -0.4059   0.14277   0.13541  -0.0269   1.0000   0.1142
 -11.000  -0.3970   0.14227   0.13481  -0.0248   1.0000   0.1136
 -11.250  -0.3917   0.14245   0.13490  -0.0230   1.0000   0.1117
 -11.500  -0.3935   0.14444   0.13684  -0.0219   1.0000   0.1083
 -11.750  -0.3997   0.14758   0.13995  -0.0215   1.0000   0.1041
 -12.000  -0.4260   0.15773   0.15015  -0.0235   1.0000   0.0998
 -12.250  -0.4198   0.15727   0.14960  -0.0214   1.0000   0.0993
 -12.500  -0.4166   0.15736   0.14963  -0.0195   1.0000   0.0978
 -12.750  -0.4189   0.15918   0.15141  -0.0181   1.0000   0.0946
 -13.000  -0.4248   0.16209   0.15429  -0.0173   1.0000   0.0909
 -13.250  -0.4420   0.16921   0.16144  -0.0183   1.0000   0.0864
 -13.500  -0.4510   0.17434   0.16653  -0.0177   1.0000   0.0854
 -13.750  -0.4488   0.17415   0.16628  -0.0156   1.0000   0.0848
 -14.000  -0.4495   0.17483   0.16692  -0.0137   1.0000   0.0831
 -14.250  -0.4542   0.17702   0.16907  -0.0123   1.0000   0.0808
 -14.500  -0.4605   0.17986   0.17190  -0.0112   1.0000   0.0781
 -14.750  -0.4679   0.18297   0.17503  -0.0102   1.0000   0.0760
 -15.000  -0.4774   0.18719   0.17925  -0.0097   1.0000   0.0736
 -15.250  -0.5005   0.19959   0.19167  -0.0108   1.0000   0.0715
 -15.500  -0.4994   0.19890   0.19093  -0.0087   1.0000   0.0712
 -15.750  -0.5002   0.19858   0.19056  -0.0065   1.0000   0.0708
 -16.000  -0.5032   0.19909   0.19104  -0.0044   1.0000   0.0696
 -16.250  -0.5092   0.20109   0.19302  -0.0026   1.0000   0.0680
 -16.500  -0.5161   0.20369   0.19560  -0.0011   1.0000   0.0662
 -16.750  -0.5235   0.20657   0.19847   0.0003   1.0000   0.0643
 -17.000  -0.5314   0.20964   0.20153   0.0015   1.0000   0.0625
 -17.250  -0.5398   0.21305   0.20494   0.0027   1.0000   0.0608
 -17.500  -0.5499   0.21778   0.20968   0.0034   1.0000   0.0592
 -17.750  -0.5712   0.23252   0.22447   0.0026   1.0000   0.0577
 -18.000  -0.5722   0.23098   0.22289   0.0050   1.0000   0.0575
 -18.250  -0.5750   0.23004   0.22192   0.0074   1.0000   0.0572
 -18.500  -0.5798   0.23016   0.22201   0.0097   1.0000   0.0567
 -18.750  -0.5859   0.23104   0.22287   0.0120   1.0000   0.0555
 -19.000  -0.5933   0.23318   0.22500   0.0139   1.0000   0.0539
 -19.250  -0.6012   0.23584   0.22765   0.0157   1.0000   0.0524
 -19.500  -0.6092   0.23864   0.23044   0.0174   1.0000   0.0510
 -19.750  -0.6174   0.24155   0.23335   0.0190   1.0000   0.0496
 -20.000  -0.6256   0.24459   0.23639   0.0206   1.0000   0.0485
