  
       XFOIL         Version 6.99
  
 Calculated polar for: FX 75-141                                       
  
 1 1 Reynolds number fixed          Mach number fixed         
  
 xtrf =   1.000 (top)        1.000 (bottom)  
 Mach =   0.000     Re =     0.050 e 6     Ncrit =   9.000
  
   alpha    CL        CD       CDp       CM     Top_Xtr  Bot_Xtr
  ------ -------- --------- --------- -------- -------- --------
   0.000  -0.1901   0.03355   0.02523  -0.0119   1.0000   1.0000
   0.250  -0.1807   0.03337   0.02490  -0.0117   1.0000   1.0000
   0.500  -0.1642   0.03357   0.02493  -0.0126   1.0000   1.0000
   0.750  -0.1439   0.03402   0.02520  -0.0141   1.0000   1.0000
   1.000  -0.1215   0.03465   0.02566  -0.0158   1.0000   1.0000
   1.250  -0.0984   0.03541   0.02626  -0.0176   1.0000   1.0000
   1.500  -0.0749   0.03626   0.02696  -0.0195   1.0000   1.0000
   1.750  -0.0514   0.03719   0.02775  -0.0213   1.0000   1.0000
   2.000  -0.0282   0.03819   0.02863  -0.0230   1.0000   1.0000
   2.250  -0.0055   0.03925   0.02957  -0.0246   1.0000   1.0000
   2.500   0.0170   0.04037   0.03058  -0.0262   1.0000   1.0000
   2.750   0.0389   0.04153   0.03165  -0.0277   1.0000   1.0000
   3.000   0.0604   0.04274   0.03279  -0.0291   1.0000   1.0000
   3.250   0.0813   0.04401   0.03398  -0.0304   1.0000   1.0000
   3.500   0.1018   0.04533   0.03523  -0.0317   1.0000   1.0000
   3.750   0.1218   0.04669   0.03655  -0.0329   1.0000   1.0000
   4.000   0.1451   0.04833   0.03815  -0.0348   0.9983   1.0000
   4.250   0.1867   0.05134   0.04110  -0.0401   0.9878   1.0000
   4.500   0.2220   0.05383   0.04357  -0.0443   0.9748   1.0000
   4.750   0.2558   0.05607   0.04582  -0.0481   0.9570   1.0000
   4.750   0.2558   0.05607   0.04582  -0.0481   0.9570   1.0000
   4.850   0.2758   0.05768   0.04742  -0.0506   0.9517   1.0000
   4.950   0.2823   0.05795   0.04771  -0.0509   0.9430   1.0000
   5.500   0.3639   0.06418   0.05400  -0.0595   0.9043   1.0000
   5.250   0.3264   0.06120   0.05098  -0.0557   0.9223   1.0000
   5.350   0.3328   0.06173   0.05153  -0.0559   0.9151   1.0000
   5.450   0.3506   0.06294   0.05276  -0.0578   0.9066   1.0000
   5.750   0.3850   0.06576   0.05562  -0.0607   0.8857   1.0000
   6.000   0.4093   0.06744   0.05736  -0.0622   0.8622   1.0000
   6.250   0.4546   0.07069   0.06067  -0.0664   0.8385   1.0000
   6.500   0.5473   0.06882   0.05889  -0.0692   0.7317   1.0000
   6.750   0.5861   0.06963   0.05980  -0.0705   0.7072   1.0000
   7.000   0.6133   0.07049   0.06076  -0.0708   0.6859   1.0000
   7.250   0.6636   0.07076   0.06119  -0.0726   0.6654   1.0000
   7.500   0.6775   0.07187   0.06239  -0.0718   0.6453   1.0000
   7.750   0.7052   0.07257   0.06321  -0.0719   0.6254   1.0000
   8.000   0.7461   0.07250   0.06333  -0.0724   0.6061   1.0000
   8.250   0.7906   0.07186   0.06289  -0.0726   0.5873   1.0000
   8.500   0.7980   0.07332   0.06446  -0.0712   0.5653   1.0000
   8.750   0.8339   0.07275   0.06410  -0.0706   0.5449   1.0000
   9.000   0.8876   0.07019   0.06180  -0.0698   0.5258   1.0000
   9.500   0.9643   0.06576   0.05788  -0.0658   0.4814   1.0000
   9.750   1.1673   0.04190   0.03464  -0.0621   0.4396   1.0000
   9.500   0.9643   0.06576   0.05788  -0.0658   0.4814   1.0000
   9.700   1.1406   0.04459   0.03732  -0.0624   0.4534   1.0000
  10.250   1.2128   0.03994   0.03183  -0.0556   0.3340   1.0000
  10.000   1.1983   0.03973   0.03220  -0.0589   0.3862   1.0000
  10.100   1.2071   0.03947   0.03169  -0.0576   0.3641   1.0000
  10.200   1.2074   0.03997   0.03206  -0.0561   0.3460   1.0000
  10.500   1.2165   0.04173   0.03324  -0.0525   0.2907   1.0000
  10.750   1.2270   0.04389   0.03500  -0.0503   0.2504   1.0000
  11.000   1.2438   0.04617   0.03701  -0.0489   0.2178   1.0000
  11.250   1.2722   0.04857   0.03917  -0.0487   0.1909   1.0000
  11.500   1.2950   0.05122   0.04185  -0.0482   0.1730   1.0000
  11.750   1.3181   0.05404   0.04473  -0.0478   0.1591   1.0000
  12.000   1.3458   0.05718   0.04791  -0.0481   0.1478   1.0000
  12.250   1.3430   0.06014   0.05125  -0.0456   0.1423   1.0000
  12.500   1.3699   0.06374   0.05485  -0.0460   0.1343   1.0000
  12.750   1.3541   0.06716   0.05870  -0.0427   0.1324   1.0000
  13.000   1.3372   0.07094   0.06285  -0.0401   0.1309   1.0000
  13.250   1.3171   0.07506   0.06729  -0.0379   0.1295   1.0000
  13.500   1.2934   0.07972   0.07226  -0.0363   0.1290   1.0000
  13.750   1.2629   0.08516   0.07799  -0.0354   0.1291   1.0000
  14.000   1.2268   0.09170   0.08480  -0.0356   0.1304   1.0000
  14.250   1.1884   0.09933   0.09266  -0.0372   0.1320   1.0000
  14.500   1.1523   0.10785   0.10133  -0.0400   0.1336   1.0000
  14.750   1.1206   0.11705   0.11063  -0.0437   0.1349   1.0000
  15.750   0.6882   0.18177   0.17604  -0.0842   0.2735   1.0000
  16.000   0.6845   0.18443   0.17872  -0.0861   0.2687   1.0000
  16.250   0.6914   0.18752   0.18187  -0.0872   0.2593   1.0000
  16.000   0.6845   0.18443   0.17872  -0.0861   0.2687   1.0000
  16.100   0.6830   0.18515   0.17946  -0.0868   0.2647   1.0000
  16.200   0.6872   0.18654   0.18087  -0.0871   0.2609   1.0000
  16.500   0.6945   0.19103   0.18540  -0.0886   0.2536   1.0000
  16.250   0.6914   0.18752   0.18187  -0.0872   0.2593   1.0000
  16.350   0.7102   0.19211   0.18648  -0.0867   0.2562   1.0000
  16.450   0.6993   0.19131   0.18568  -0.0880   0.2550   1.0000
  16.750   0.7009   0.19401   0.18843  -0.0897   0.2436   1.0000
  17.000   0.7098   0.19871   0.19316  -0.0909   0.2397   1.0000
  17.250   0.7046   0.20013   0.19461  -0.0930   0.2315   1.0000
  17.500   0.7247   0.20645   0.20097  -0.0931   0.2249   1.0000
  17.750   0.7131   0.20679   0.20134  -0.0958   0.2181   1.0000
  18.000   0.7270   0.21138   0.20599  -0.0964   0.2116   1.0000
  18.250   0.7281   0.21486   0.20948  -0.0982   0.2082   1.0000
  18.500   0.7275   0.21703   0.21168  -0.1001   0.2003   1.0000
  18.750   0.7500   0.22455   0.21925  -0.0999   0.1945   1.0000
  19.000   0.7363   0.22420   0.21891  -0.1031   0.1902   1.0000
  19.250   0.7416   0.22754   0.22229  -0.1045   0.1841   1.0000
  19.500   0.7630   0.23542   0.23022  -0.1043   0.1794   1.0000
  19.750   0.7493   0.23487   0.22967  -0.1077   0.1752   1.0000
  20.000   0.7552   0.23830   0.23315  -0.1090   0.1685   1.0000
   0.000  -0.1901   0.03355   0.02523  -0.0119   1.0000   1.0000
  -0.250  -0.1907   0.03413   0.02592  -0.0136   1.0000   1.0000
  -0.500  -0.2223   0.03387   0.02588  -0.0095   1.0000   0.9834
  -0.750  -0.3162   0.03238   0.02472   0.0025   1.0000   0.9105
  -1.000  -0.3214   0.03279   0.02519  -0.0023   1.0000   0.8672
  -1.250  -0.3213   0.03307   0.02555  -0.0083   1.0000   0.8286
  -1.500  -0.3202   0.03313   0.02568  -0.0148   1.0000   0.7906
  -1.750  -0.3198   0.03287   0.02549  -0.0214   1.0000   0.7500
  -2.000  -0.3198   0.03220   0.02489  -0.0283   1.0000   0.7033
  -2.500  -0.3138   0.02971   0.02182  -0.0452   1.0000   0.4929
  -2.750  -0.3317   0.03108   0.02146  -0.0474   1.0000   0.3054
  -3.000  -0.3521   0.03219   0.02211  -0.0483   1.0000   0.2538
  -3.250  -0.3725   0.03305   0.02285  -0.0492   1.0000   0.2241
  -3.500  -0.3927   0.03403   0.02367  -0.0502   1.0000   0.2050
  -3.750  -0.4139   0.03508   0.02477  -0.0509   1.0000   0.1895
  -4.000  -0.4367   0.03622   0.02616  -0.0513   1.0000   0.1770
  -4.250  -0.4595   0.03774   0.02794  -0.0515   1.0000   0.1677
  -4.000  -0.4367   0.03622   0.02616  -0.0513   1.0000   0.1770
  -4.100  -0.4442   0.03686   0.02665  -0.0516   1.0000   0.1729
  -4.200  -0.4546   0.03741   0.02750  -0.0515   1.0000   0.1694
  -4.500  -0.4811   0.03923   0.02955  -0.0519   1.0000   0.1596
  -4.750  -0.5047   0.04141   0.03215  -0.0515   1.0000   0.1532
  -5.000  -0.5289   0.04407   0.03538  -0.0507   1.0000   0.1505
  -5.250  -0.5506   0.04670   0.03840  -0.0500   1.0000   0.1462
  -5.500  -0.5696   0.04941   0.04131  -0.0497   1.0000   0.1431
  -5.750  -0.5907   0.05531   0.04819  -0.0460   1.0000   0.1476
  -6.000  -0.6033   0.06105   0.05443  -0.0430   1.0000   0.1522
  -6.250  -0.6118   0.06588   0.05950  -0.0417   1.0000   0.1550
  -6.500  -0.6224   0.06978   0.06340  -0.0425   1.0000   0.1571
  -7.000  -0.4427   0.10507   0.09923  -0.0041   1.0000   0.3858
  -7.250  -0.4067   0.10455   0.09856  -0.0076   1.0000   0.3743
  -7.500  -0.3983   0.10638   0.10033  -0.0100   1.0000   0.3620
  -7.750  -0.4159   0.11023   0.10419  -0.0116   1.0000   0.3524
  -8.000  -0.3970   0.11073   0.10461  -0.0142   1.0000   0.3402
  -8.250  -0.3853   0.11246   0.10626  -0.0163   1.0000   0.3318
  -8.500  -0.4120   0.11710   0.11094  -0.0181   1.0000   0.3202
  -8.750  -0.3729   0.11595   0.10964  -0.0205   1.0000   0.3121
  -9.000  -0.3830   0.11927   0.11295  -0.0226   1.0000   0.3025
  -8.750  -0.3729   0.11595   0.10964  -0.0205   1.0000   0.3121
  -8.850  -0.3831   0.11746   0.11118  -0.0215   1.0000   0.3066
  -8.950  -0.3940   0.11978   0.11350  -0.0221   1.0000   0.3033
  -9.250  -0.3663   0.11966   0.11325  -0.0250   1.0000   0.2921
  -9.500  -0.3636   0.12197   0.11551  -0.0272   1.0000   0.2848
  -9.750  -0.3551   0.12297   0.11645  -0.0298   1.0000   0.2747
 -10.000  -0.3569   0.12587   0.11932  -0.0322   1.0000   0.2697
 -10.250  -0.3296   0.12496   0.11826  -0.0352   1.0000   0.2628
 -10.500  -0.3545   0.13002   0.12337  -0.0380   1.0000   0.2549
 -10.750  -0.3200   0.12851   0.12165  -0.0401   1.0000   0.2514
 -11.000  -0.3150   0.12990   0.12294  -0.0415   1.0000   0.2428
 -11.250  -0.3263   0.13407   0.12706  -0.0426   1.0000   0.2368
 -11.500  -0.3127   0.13442   0.12729  -0.0424   1.0000   0.2291
 -11.750  -0.3334   0.13980   0.13265  -0.0435   1.0000   0.2208
 -12.000  -0.3174   0.13979   0.13253  -0.0426   1.0000   0.2145
 -12.250  -0.3562   0.14800   0.14080  -0.0444   1.0000   0.2053
 -12.500  -0.3290   0.14617   0.13880  -0.0424   1.0000   0.2023
 -12.750  -0.3297   0.14824   0.14082  -0.0418   1.0000   0.1950
 -13.000  -0.3654   0.15691   0.14954  -0.0431   1.0000   0.1890
 -13.250  -0.3419   0.15496   0.14745  -0.0408   1.0000   0.1863
 -13.500  -0.3430   0.15699   0.14943  -0.0399   1.0000   0.1792
 -13.750  -0.3760   0.16575   0.15822  -0.0411   1.0000   0.1728
 -14.000  -0.3594   0.16428   0.15666  -0.0388   1.0000   0.1709
 -14.250  -0.3588   0.16580   0.15812  -0.0374   1.0000   0.1638
 -14.500  -0.3867   0.17339   0.16576  -0.0385   1.0000   0.1576
 -14.750  -0.3811   0.17449   0.16677  -0.0365   1.0000   0.1559
 -15.000  -0.3766   0.17497   0.16719  -0.0344   1.0000   0.1514
 -15.250  -0.3843   0.17794   0.17015  -0.0334   1.0000   0.1463
 -15.500  -0.4032   0.18378   0.17601  -0.0336   1.0000   0.1424
 -15.750  -0.4119   0.18839   0.18057  -0.0325   1.0000   0.1407
 -16.000  -0.4046   0.18744   0.17955  -0.0297   1.0000   0.1376
 -16.250  -0.4102   0.18986   0.18194  -0.0282   1.0000   0.1329
 -16.500  -0.4219   0.19365   0.18572  -0.0275   1.0000   0.1287
 -16.750  -0.4455   0.20301   0.19510  -0.0279   1.0000   0.1256
 -17.000  -0.4372   0.20072   0.19275  -0.0247   1.0000   0.1240
 -17.250  -0.4399   0.20201   0.19399  -0.0225   1.0000   0.1201
 -17.500  -0.4481   0.20491   0.19688  -0.0210   1.0000   0.1164
 -17.750  -0.4600   0.20898   0.20095  -0.0202   1.0000   0.1132
 -18.000  -0.4889   0.22175   0.21376  -0.0211   1.0000   0.1107
 -18.250  -0.4817   0.21863   0.21056  -0.0179   1.0000   0.1100
 -18.500  -0.4813   0.21798   0.20987  -0.0149   1.0000   0.1081
 -18.750  -0.4876   0.22003   0.21190  -0.0127   1.0000   0.1053
 -19.000  -0.4959   0.22293   0.21479  -0.0110   1.0000   0.1021
 -19.250  -0.5061   0.22639   0.21827  -0.0097   1.0000   0.0995
 -19.500  -0.5229   0.23357   0.22547  -0.0096   1.0000   0.0970
 -19.750  -0.5331   0.23893   0.23080  -0.0080   1.0000   0.0959
 -20.000  -0.5324   0.23685   0.22867  -0.0046   1.0000   0.0947
