  
       XFOIL         Version 6.99
  
 Calculated polar for: BE50 (smoothed)                                 
  
 1 1 Reynolds number fixed          Mach number fixed         
  
 xtrf =   1.000 (top)        1.000 (bottom)  
 Mach =   0.000     Re =     0.050 e 6     Ncrit =   9.000
  
   alpha    CL        CD       CDp       CM     Top_Xtr  Bot_Xtr
  ------ -------- --------- --------- -------- -------- --------
   0.000   0.2706   0.02025   0.01098  -0.0784   1.0000   1.0000
   0.250   0.2932   0.02089   0.01136  -0.0786   1.0000   1.0000
   0.500   0.3149   0.02160   0.01189  -0.0789   1.0000   1.0000
   0.750   0.3359   0.02241   0.01254  -0.0792   1.0000   1.0000
   1.000   0.3561   0.02332   0.01333  -0.0796   1.0000   1.0000
   1.250   0.3789   0.02434   0.01427  -0.0807   0.9980   1.0000
   1.500   0.4453   0.02535   0.01514  -0.0893   0.9747   1.0000
   1.750   0.5063   0.02608   0.01581  -0.0963   0.9500   1.0000
   2.000   0.5657   0.02650   0.01622  -0.1024   0.9249   1.0000
   2.250   0.6244   0.02657   0.01633  -0.1077   0.8995   1.0000
   2.500   0.6758   0.02641   0.01627  -0.1110   0.8723   1.0000
   2.750   0.7227   0.02603   0.01597  -0.1129   0.8449   1.0000
   2.750   0.7227   0.02603   0.01597  -0.1129   0.8449   1.0000
   2.850   0.7387   0.02590   0.01587  -0.1131   0.8333   1.0000
   2.950   0.7561   0.02568   0.01569  -0.1134   0.8224   1.0000
   3.500   0.8392   0.02453   0.01469  -0.1122   0.7596   1.0000
   3.350   0.8178   0.02484   0.01498  -0.1128   0.7768   1.0000
   3.450   0.8319   0.02465   0.01481  -0.1124   0.7653   1.0000
   3.750   0.8711   0.02424   0.01441  -0.1107   0.7300   1.0000
   4.000   0.9006   0.02416   0.01431  -0.1090   0.7002   1.0000
   4.250   0.9280   0.02432   0.01448  -0.1073   0.6708   1.0000
   4.500   0.9540   0.02471   0.01484  -0.1057   0.6425   1.0000
   4.750   0.9791   0.02527   0.01539  -0.1043   0.6152   1.0000
   5.000   1.0038   0.02596   0.01610  -0.1030   0.5899   1.0000
   5.250   1.0297   0.02661   0.01677  -0.1018   0.5671   1.0000
   5.500   1.0535   0.02750   0.01775  -0.1006   0.5442   1.0000
   5.750   1.0785   0.02835   0.01862  -0.0995   0.5235   1.0000
   6.000   1.1016   0.02942   0.01983  -0.0985   0.5027   1.0000
   6.250   1.1267   0.03035   0.02085  -0.0974   0.4837   1.0000
   6.500   1.1490   0.03158   0.02225  -0.0962   0.4642   1.0000
   6.750   1.1713   0.03282   0.02367  -0.0951   0.4450   1.0000
   7.000   1.1956   0.03386   0.02478  -0.0938   0.4260   1.0000
   7.250   1.2154   0.03528   0.02649  -0.0924   0.4055   1.0000
   7.500   1.2387   0.03615   0.02741  -0.0907   0.3828   1.0000
   7.750   1.2586   0.03671   0.02802  -0.0886   0.3543   1.0000
   8.000   1.2747   0.03677   0.02811  -0.0858   0.3190   1.0000
   8.250   1.2895   0.03650   0.02770  -0.0828   0.2786   1.0000
   8.500   1.2957   0.03678   0.02791  -0.0788   0.2281   1.0000
   8.750   1.2973   0.03826   0.02907  -0.0746   0.1760   1.0000
   9.000   1.3046   0.04036   0.03076  -0.0715   0.1429   1.0000
   9.250   1.3177   0.04343   0.03398  -0.0692   0.1232   1.0000
   9.500   1.3313   0.04635   0.03699  -0.0673   0.1097   1.0000
   9.750   1.3468   0.04968   0.04041  -0.0656   0.1007   1.0000
  10.000   1.3579   0.05360   0.04480  -0.0636   0.0957   1.0000
  10.250   1.3738   0.05758   0.04873  -0.0625   0.0903   1.0000
  10.500   1.3684   0.06171   0.05353  -0.0595   0.0885   1.0000
  10.750   1.3590   0.06604   0.05839  -0.0567   0.0870   1.0000
  11.000   1.3449   0.07049   0.06325  -0.0541   0.0862   1.0000
  11.250   1.3246   0.07486   0.06795  -0.0515   0.0863   1.0000
  11.500   1.3008   0.07969   0.07304  -0.0499   0.0868   1.0000
  11.750   1.2756   0.08520   0.07878  -0.0497   0.0876   1.0000
  12.000   1.2506   0.09145   0.08521  -0.0511   0.0886   1.0000
  12.250   1.2273   0.09839   0.09228  -0.0536   0.0896   1.0000
  12.500   1.2069   0.10581   0.09978  -0.0568   0.0904   1.0000
  13.000   1.0747   0.15021   0.14400  -0.0904   0.1173   1.0000
  13.250   1.0758   0.15594   0.14974  -0.0918   0.1164   1.0000
  13.500   1.0561   0.16876   0.16243  -0.1004   0.1302   1.0000
  13.250   1.0508   0.16370   0.15734  -0.0995   0.1318   1.0000
  13.350   1.0525   0.16574   0.15939  -0.0999   0.1311   1.0000
  13.450   1.0548   0.16774   0.16140  -0.1002   0.1304   1.0000
  13.750   1.0317   0.19180   0.18535  -0.1174   0.2240   1.0000
  14.000   1.0204   0.19434   0.18783  -0.1210   0.2217   1.0000
  14.250   1.0461   0.20152   0.19510  -0.1192   0.2104   1.0000
  14.500   1.0339   0.20337   0.19689  -0.1232   0.2090   1.0000
  14.750   1.0308   0.20605   0.19954  -0.1263   0.2037   1.0000
  15.000   1.0423   0.21092   0.20445  -0.1269   0.1988   1.0000
  15.250   1.0560   0.21757   0.21112  -0.1274   0.1961   1.0000
  15.500   1.0479   0.21845   0.21195  -0.1316   0.1917   1.0000
  15.750   1.0625   0.22362   0.21717  -0.1315   0.1843   1.0000
  16.000   1.0656   0.22748   0.22100  -0.1340   0.1812   1.0000
  16.250   1.0673   0.22978   0.22329  -0.1369   0.1746   1.0000
  16.750   1.0868   0.23961   0.23318  -0.1392   0.1680   1.0000
  17.000   1.0873   0.24129   0.23484  -0.1429   0.1630   1.0000
  17.250   1.0982   0.24573   0.23931  -0.1437   0.1582   1.0000
  17.500   1.1121   0.25275   0.24636  -0.1440   0.1552   1.0000
  17.250   1.0982   0.24574   0.23932  -0.1437   0.1582   1.0000
  17.350   1.1096   0.25041   0.24404  -0.1423   0.1563   1.0000
  17.450   1.1141   0.25329   0.24691  -0.1428   0.1554   1.0000
  17.750   1.1093   0.25260   0.24615  -0.1488   0.1511   1.0000
  18.000   1.1194   0.25659   0.25018  -0.1498   0.1450   1.0000
  18.250   1.1336   0.26389   0.25750  -0.1499   0.1418   1.0000
  18.500   1.1319   0.26345   0.25702  -0.1548   0.1383   1.0000
  18.750   1.1397   0.26679   0.26038  -0.1568   0.1336   1.0000
  19.000   1.1549   0.27372   0.26737  -0.1563   0.1299   1.0000
  19.250   1.1611   0.27761   0.27123  -0.1589   0.1284   1.0000
  19.500   1.1623   0.27763   0.27122  -0.1635   0.1250   1.0000
  19.750   1.1701   0.28086   0.27447  -0.1657   0.1208   1.0000
  20.000   1.1836   0.28712   0.28083  -0.1655   0.1171   1.0000
  -1.250   0.1496   0.02313   0.01272  -0.0810   1.0000   0.2489
  -1.000   0.1816   0.02206   0.01189  -0.0816   1.0000   0.3319
  -1.100   0.1688   0.02249   0.01213  -0.0813   1.0000   0.2890
  -1.200   0.1562   0.02291   0.01247  -0.0811   1.0000   0.2600
  -1.500   0.1189   0.02416   0.01380  -0.0805   1.0000   0.2061
  -1.250   0.1496   0.02313   0.01272  -0.0810   1.0000   0.2489
  -1.350   0.1375   0.02356   0.01308  -0.0808   1.0000   0.2297
  -1.450   0.1253   0.02394   0.01351  -0.0806   1.0000   0.2124
  -1.750   0.0880   0.02545   0.01522  -0.0798   1.0000   0.1822
  -1.500   0.1189   0.02416   0.01380  -0.0805   1.0000   0.2061
  -1.600   0.1065   0.02471   0.01438  -0.0803   1.0000   0.1970
  -1.700   0.0946   0.02518   0.01487  -0.0801   1.0000   0.1871
  -2.000   0.0561   0.02695   0.01707  -0.0790   1.0000   0.1666
  -2.250   0.0260   0.02876   0.01903  -0.0782   1.0000   0.1557
  -2.500  -0.0118   0.03113   0.02219  -0.0760   1.0000   0.1502
  -2.750  -0.0492   0.03434   0.02594  -0.0734   1.0000   0.1536
  -3.000  -0.0880   0.03795   0.03012  -0.0698   1.0000   0.1582
  -3.750  -0.3018   0.06192   0.05636  -0.0097   1.0000   0.3824
  -4.000  -0.3074   0.06440   0.05877  -0.0125   1.0000   0.3517
  -4.250  -0.3135   0.06690   0.06121  -0.0145   1.0000   0.3236
  -4.500  -0.3195   0.06981   0.06404  -0.0183   1.0000   0.3040
  -4.750  -0.3262   0.07287   0.06703  -0.0197   1.0000   0.2874
  -5.000  -0.3326   0.07488   0.06900  -0.0167   1.0000   0.2668
  -5.250  -0.3380   0.07764   0.07169  -0.0171   1.0000   0.2535
  -5.500  -0.3459   0.08137   0.07535  -0.0209   1.0000   0.2434
  -5.750  -0.3517   0.08391   0.07784  -0.0208   1.0000   0.2303
  -5.500  -0.3459   0.08137   0.07535  -0.0209   1.0000   0.2434
  -5.600  -0.3446   0.08132   0.07527  -0.0171   1.0000   0.2359
  -5.700  -0.3489   0.08277   0.07671  -0.0190   1.0000   0.2317
  -6.250  -0.3563   0.08887   0.08264  -0.0180   1.0000   0.2122
  -6.500  -0.3651   0.09226   0.08599  -0.0200   1.0000   0.2011
  -6.750  -0.3592   0.09368   0.08726  -0.0169   1.0000   0.1950
  -7.000  -0.3754   0.09891   0.09248  -0.0207   1.0000   0.1850
  -7.250  -0.3625   0.09882   0.09221  -0.0171   1.0000   0.1802
  -7.500  -0.3837   0.10480   0.09822  -0.0198   1.0000   0.1704
  -7.750  -0.3685   0.10442   0.09765  -0.0173   1.0000   0.1673
  -8.000  -0.3730   0.10707   0.10024  -0.0172   1.0000   0.1596
  -8.250  -0.3862   0.11217   0.10532  -0.0180   1.0000   0.1553
  -8.500  -0.3780   0.11258   0.10560  -0.0156   1.0000   0.1512
  -8.750  -0.3852   0.11573   0.10871  -0.0153   1.0000   0.1451
  -9.000  -0.4031   0.12214   0.11512  -0.0166   1.0000   0.1411
  -8.750  -0.3852   0.11572   0.10871  -0.0153   1.0000   0.1451
  -8.850  -0.3994   0.11955   0.11259  -0.0170   1.0000   0.1423
  -8.950  -0.4056   0.12228   0.11530  -0.0172   1.0000   0.1413
  -9.250  -0.3944   0.12205   0.11492  -0.0136   1.0000   0.1386
  -9.500  -0.3970   0.12435   0.11720  -0.0123   1.0000   0.1336
  -9.750  -0.4123   0.12949   0.12234  -0.0131   1.0000   0.1284
 -10.000  -0.4201   0.13398   0.12679  -0.0125   1.0000   0.1264
 -10.250  -0.4148   0.13426   0.12699  -0.0098   1.0000   0.1240
 -10.500  -0.4183   0.13668   0.12936  -0.0084   1.0000   0.1198
 -10.750  -0.4275   0.14046   0.13313  -0.0081   1.0000   0.1156
 -11.000  -0.4485   0.14875   0.14143  -0.0094   1.0000   0.1124
 -11.250  -0.4421   0.14836   0.14096  -0.0065   1.0000   0.1114
 -11.500  -0.4419   0.14952   0.14207  -0.0043   1.0000   0.1084
 -11.750  -0.4476   0.15235   0.14488  -0.0032   1.0000   0.1043
 -12.000  -0.4602   0.15729   0.14983  -0.0034   1.0000   0.1000
 -12.250  -0.4744   0.16415   0.15666  -0.0034   1.0000   0.0979
 -12.500  -0.4709   0.16386   0.15632  -0.0007   1.0000   0.0969
 -12.750  -0.4731   0.16530   0.15775   0.0014   1.0000   0.0944
 -13.000  -0.4791   0.16810   0.16053   0.0028   1.0000   0.0914
 -13.250  -0.4870   0.17145   0.16387   0.0038   1.0000   0.0886
 -13.500  -0.4982   0.17622   0.16865   0.0042   1.0000   0.0860
 -13.750  -0.5189   0.18643   0.17887   0.0035   1.0000   0.0841
 -14.000  -0.5168   0.18580   0.17817   0.0061   1.0000   0.0837
 -14.250  -0.5177   0.18592   0.17826   0.0086   1.0000   0.0827
 -14.500  -0.5224   0.18757   0.17988   0.0107   1.0000   0.0808
 -14.750  -0.5294   0.19027   0.18256   0.0124   1.0000   0.0785
 -15.000  -0.5372   0.19335   0.18564   0.0139   1.0000   0.0762
 -15.250  -0.5459   0.19682   0.18910   0.0151   1.0000   0.0741
 -15.500  -0.5565   0.20150   0.19379   0.0158   1.0000   0.0721
 -15.750  -0.5793   0.21489   0.20723   0.0148   1.0000   0.0703
 -16.000  -0.5795   0.21380   0.20610   0.0174   1.0000   0.0701
 -16.250  -0.5817   0.21313   0.20539   0.0202   1.0000   0.0696
 -16.500  -0.5866   0.21363   0.20586   0.0228   1.0000   0.0686
 -16.750  -0.5938   0.21560   0.20782   0.0250   1.0000   0.0668
 -17.000  -0.6019   0.21833   0.21054   0.0269   1.0000   0.0647
 -17.250  -0.6105   0.22136   0.21357   0.0286   1.0000   0.0627
 -17.500  -0.6195   0.22468   0.21689   0.0302   1.0000   0.0608
 -17.750  -0.6292   0.22879   0.22100   0.0313   1.0000   0.0590
 -18.000  -0.6442   0.23852   0.23078   0.0310   1.0000   0.0574
 -18.250  -0.6562   0.24607   0.23829   0.0322   1.0000   0.0569
 -18.500  -0.6598   0.24491   0.23710   0.0350   1.0000   0.0567
 -18.750  -0.6650   0.24442   0.23659   0.0379   1.0000   0.0563
 -19.000  -0.6718   0.24499   0.23714   0.0407   1.0000   0.0557
 -19.250  -0.6799   0.24671   0.23889   0.0432   1.0000   0.0547
 -19.500  -0.6885   0.24917   0.24136   0.0454   1.0000   0.0535
 -19.750  -0.6972   0.25196   0.24414   0.0475   1.0000   0.0522
 -20.000  -0.7061   0.25488   0.24706   0.0496   1.0000   0.0510
