  
       XFOIL         Version 6.99
  
 Calculated polar for: D.G.A. 1138                                     
  
 1 1 Reynolds number fixed          Mach number fixed         
  
 xtrf =   1.000 (top)        1.000 (bottom)  
 Mach =   0.000     Re =     0.050 e 6     Ncrit =   9.000
  
   alpha    CL        CD       CDp       CM     Top_Xtr  Bot_Xtr
  ------ -------- --------- --------- -------- -------- --------
   0.000   0.1597   0.01978   0.00890  -0.0285   1.0000   1.0000
   0.250   0.1802   0.02021   0.00924  -0.0280   1.0000   1.0000
   0.500   0.2004   0.02069   0.00966  -0.0274   1.0000   1.0000
   0.750   0.2202   0.02123   0.01016  -0.0270   1.0000   1.0000
   1.000   0.2393   0.02184   0.01075  -0.0266   1.0000   1.0000
   1.250   0.2578   0.02255   0.01146  -0.0263   1.0000   1.0000
   1.500   0.2754   0.02337   0.01230  -0.0261   1.0000   1.0000
   1.750   0.2918   0.02433   0.01330  -0.0261   1.0000   1.0000
   2.000   0.3073   0.02542   0.01444  -0.0261   1.0000   1.0000
   2.250   0.3648   0.02669   0.01583  -0.0339   0.9826   1.0000
   2.500   0.4377   0.02744   0.01678  -0.0436   0.9512   1.0000
   2.750   0.5137   0.02752   0.01717  -0.0524   0.9183   1.0000
   3.000   0.5853   0.02704   0.01704  -0.0593   0.8877   1.0000
   3.250   0.6400   0.02664   0.01702  -0.0630   0.8604   1.0000
   3.500   0.6921   0.02580   0.01656  -0.0652   0.8307   1.0000
   3.750   0.7336   0.02465   0.01580  -0.0644   0.7926   1.0000
   4.000   0.7744   0.02284   0.01427  -0.0618   0.7438   1.0000
   4.250   0.7986   0.02169   0.01317  -0.0566   0.6676   1.0000
   4.500   0.8199   0.02152   0.01240  -0.0514   0.5536   1.0000
   4.750   0.8410   0.02316   0.01338  -0.0487   0.4574   1.0000
   5.000   0.8621   0.02433   0.01440  -0.0469   0.4020   1.0000
   5.250   0.8831   0.02535   0.01523  -0.0451   0.3591   1.0000
   5.500   0.8995   0.02637   0.01601  -0.0430   0.3112   1.0000
   5.750   0.9140   0.02762   0.01703  -0.0409   0.2609   1.0000
   6.000   0.9251   0.02952   0.01865  -0.0383   0.1977   1.0000
   6.250   0.9420   0.03311   0.02185  -0.0361   0.1341   1.0000
   6.500   0.9666   0.03586   0.02465  -0.0348   0.1141   1.0000
   6.750   0.9891   0.03825   0.02717  -0.0336   0.1020   1.0000
   7.000   1.0106   0.04069   0.02981  -0.0325   0.0932   1.0000
   7.250   1.0309   0.04447   0.03401  -0.0311   0.0900   1.0000
   7.500   1.0454   0.04864   0.03881  -0.0291   0.0885   1.0000
   7.750   1.0551   0.05307   0.04382  -0.0269   0.0881   1.0000
   8.000   1.0604   0.05770   0.04896  -0.0247   0.0884   1.0000
   8.250   1.0611   0.06243   0.05420  -0.0225   0.0887   1.0000
   8.500   1.0574   0.06724   0.05940  -0.0204   0.0892   1.0000
   8.750   1.0508   0.07208   0.06454  -0.0185   0.0898   1.0000
   9.000   1.0426   0.07694   0.06962  -0.0169   0.0905   1.0000
   9.250   1.0344   0.08185   0.07470  -0.0157   0.0911   1.0000
   9.250   1.0344   0.08185   0.07470  -0.0157   0.0911   1.0000
   9.350   1.0318   0.08386   0.07675  -0.0153   0.0913   1.0000
   9.450   1.0295   0.08588   0.07884  -0.0150   0.0916   1.0000
   9.750   0.9428   0.09607   0.08930  -0.0184   0.1016   1.0000
  10.000   0.9401   0.10178   0.09501  -0.0194   0.1035   1.0000
  10.250   0.7484   0.10835   0.10177  -0.0195   0.1116   1.0000
  10.500   0.7402   0.11442   0.10782  -0.0211   0.1149   1.0000
  11.000   0.8348   0.14929   0.14219  -0.0579   0.2231   1.0000
  10.850   0.8490   0.14773   0.14070  -0.0558   0.2288   1.0000
  10.950   0.8350   0.14846   0.14137  -0.0576   0.2242   1.0000
  11.250   0.8416   0.15384   0.14679  -0.0584   0.2186   1.0000
  11.500   0.8611   0.16014   0.15313  -0.0575   0.2155   1.0000
  11.750   0.8389   0.16222   0.15511  -0.0614   0.2095   1.0000
  12.000   0.8480   0.16672   0.15962  -0.0618   0.2042   1.0000
  12.250   0.8629   0.17280   0.16572  -0.0616   0.2011   1.0000
  12.500   0.8473   0.17455   0.16738  -0.0651   0.1957   1.0000
  12.750   0.8612   0.17943   0.17230  -0.0650   0.1892   1.0000
  13.000   0.8632   0.18374   0.17656  -0.0666   0.1859   1.0000
  13.250   0.8594   0.18605   0.17884  -0.0688   0.1792   1.0000
  13.500   0.8833   0.19353   0.18638  -0.0674   0.1728   1.0000
  13.750   0.8699   0.19396   0.18672  -0.0714   0.1693   1.0000
  14.000   0.8759   0.19749   0.19025  -0.0726   0.1630   1.0000
  14.250   0.9044   0.20715   0.19999  -0.0708   0.1587   1.0000
  14.500   0.8896   0.20613   0.19887  -0.0753   0.1568   1.0000
  14.750   0.8904   0.20847   0.20118  -0.0778   0.1519   1.0000
  15.000   0.9008   0.21281   0.20555  -0.0785   0.1474   1.0000
  15.250   0.9234   0.22232   0.21514  -0.0775   0.1444   1.0000
  15.500   0.9132   0.22084   0.21358  -0.0820   0.1426   1.0000
  15.750   0.9156   0.22299   0.21571  -0.0847   0.1382   1.0000
  16.000   0.9246   0.22688   0.21962  -0.0859   0.1341   1.0000
  16.250   0.9508   0.23858   0.23140  -0.0839   0.1304   1.0000
  16.500   0.9424   0.23621   0.22895  -0.0885   0.1293   1.0000
  16.750   0.9435   0.23721   0.22992  -0.0919   0.1254   1.0000
  17.000   0.9520   0.24074   0.23346  -0.0934   0.1208   1.0000
  17.250   0.9747   0.25201   0.24479  -0.0915   0.1170   1.0000
  17.500   0.9699   0.24979   0.24251  -0.0961   0.1159   1.0000
  17.750   0.9728   0.25092   0.24361  -0.0995   0.1125   1.0000
  18.000   0.9806   0.25419   0.24690  -0.1014   0.1088   1.0000
  18.250   0.9922   0.25930   0.25208  -0.1020   0.1057   1.0000
  18.500   1.0067   0.26790   0.26070  -0.1020   0.1040   1.0000
  18.750   1.0060   0.26625   0.25901  -0.1065   0.1029   1.0000
  19.000   1.0107   0.26771   0.26046  -0.1097   0.1001   1.0000
  19.250   1.0183   0.27075   0.26351  -0.1119   0.0970   1.0000
  19.500   1.0276   0.27466   0.26744  -0.1133   0.0942   1.0000
  19.750   1.0446   0.28541   0.27827  -0.1121   0.0918   1.0000
  20.000   1.0483   0.28643   0.27923  -0.1154   0.0911   1.0000
   0.000   0.1597   0.01978   0.00890  -0.0285   1.0000   1.0000
  -0.250   0.1390   0.01939   0.00863  -0.0292   1.0000   1.0000
  -0.500   0.1181   0.01903   0.00843  -0.0299   1.0000   1.0000
  -0.750   0.0969   0.01871   0.00829  -0.0306   1.0000   1.0000
  -1.000   0.0757   0.01842   0.00822  -0.0314   1.0000   1.0000
  -1.250   0.0542   0.01816   0.00822  -0.0322   1.0000   1.0000
  -1.500   0.0323   0.01792   0.00835  -0.0331   1.0000   1.0000
  -1.750   0.0095   0.01770   0.00860  -0.0339   1.0000   1.0000
  -2.000  -0.0275   0.02031   0.00928  -0.0330   1.0000   0.3686
  -2.250  -0.0598   0.02245   0.01080  -0.0325   1.0000   0.2394
  -2.500  -0.0897   0.02353   0.01186  -0.0326   1.0000   0.2052
  -2.750  -0.1155   0.02437   0.01284  -0.0332   1.0000   0.1842
  -3.000  -0.1412   0.02549   0.01404  -0.0338   1.0000   0.1738
  -3.250  -0.1682   0.02687   0.01582  -0.0342   1.0000   0.1677
  -3.500  -0.1938   0.02844   0.01767  -0.0348   1.0000   0.1641
  -3.750  -0.2189   0.03031   0.01989  -0.0354   1.0000   0.1626
  -4.000  -0.2430   0.03235   0.02229  -0.0360   1.0000   0.1590
  -4.250  -0.2675   0.03471   0.02518  -0.0363   1.0000   0.1570
  -4.500  -0.2901   0.03753   0.02830  -0.0368   1.0000   0.1599
  -4.750  -0.3164   0.04161   0.03308  -0.0360   1.0000   0.1733
  -5.500  -0.4393   0.06085   0.05466   0.0021   1.0000   0.4282
  -5.750  -0.4450   0.06376   0.05750  -0.0024   1.0000   0.3946
  -5.500  -0.4393   0.06085   0.05466   0.0021   1.0000   0.4282
  -5.600  -0.4408   0.06193   0.05571   0.0001   1.0000   0.4123
  -5.700  -0.4422   0.06306   0.05681  -0.0014   1.0000   0.3984
  -6.000  -0.4496   0.06671   0.06040  -0.0053   1.0000   0.3656
  -6.250  -0.4523   0.06969   0.06336  -0.0066   1.0000   0.3411
  -6.500  -0.4595   0.07298   0.06661  -0.0086   1.0000   0.3221
  -6.750  -0.4694   0.07714   0.07070  -0.0120   1.0000   0.3048
  -7.000  -0.4656   0.07937   0.07290  -0.0097   1.0000   0.2865
  -7.250  -0.4686   0.08255   0.07602  -0.0098   1.0000   0.2714
  -7.500  -0.4803   0.08688   0.08033  -0.0120   1.0000   0.2612
  -8.000  -0.4755   0.09237   0.08567  -0.0083   1.0000   0.2416
  -8.250  -0.4982   0.09829   0.09162  -0.0121   1.0000   0.2331
  -8.500  -0.4755   0.09865   0.09180  -0.0077   1.0000   0.2271
  -8.750  -0.4973   0.10447   0.09767  -0.0096   1.0000   0.2183
  -9.000  -0.4782   0.10509   0.09812  -0.0070   1.0000   0.2133
  -8.750  -0.4973   0.10447   0.09767  -0.0096   1.0000   0.2183
  -8.850  -0.4870   0.10446   0.09757  -0.0083   1.0000   0.2173
  -8.950  -0.4797   0.10471   0.09776  -0.0073   1.0000   0.2150
  -9.250  -0.4978   0.11084   0.10393  -0.0087   1.0000   0.2037
  -9.500  -0.4827   0.11158   0.10451  -0.0059   1.0000   0.1986
  -9.750  -0.5061   0.11818   0.11119  -0.0080   1.0000   0.1894
 -10.000  -0.4898   0.11841   0.11128  -0.0047   1.0000   0.1856
 -10.250  -0.4981   0.12218   0.11505  -0.0047   1.0000   0.1778
 -10.500  -0.5045   0.12662   0.11944  -0.0043   1.0000   0.1739
 -10.750  -0.4988   0.12815   0.12090  -0.0021   1.0000   0.1682
 -11.000  -0.5270   0.13652   0.12933  -0.0047   1.0000   0.1606
 -11.250  -0.5120   0.13613   0.12884  -0.0011   1.0000   0.1588
 -11.500  -0.5109   0.13824   0.13090   0.0005   1.0000   0.1529
 -11.750  -0.5333   0.14587   0.13857  -0.0012   1.0000   0.1460
 -12.000  -0.5225   0.14579   0.13840   0.0020   1.0000   0.1437
 -12.250  -0.5248   0.14835   0.14093   0.0033   1.0000   0.1374
 -12.500  -0.5453   0.15601   0.14862   0.0019   1.0000   0.1318
 -12.750  -0.5368   0.15595   0.14847   0.0050   1.0000   0.1298
 -13.000  -0.5388   0.15833   0.15083   0.0067   1.0000   0.1249
 -13.250  -0.5517   0.16338   0.15593   0.0064   1.0000   0.1198
 -13.500  -0.5620   0.16900   0.16154   0.0070   1.0000   0.1176
 -13.750  -0.5572   0.16917   0.16165   0.0098   1.0000   0.1155
 -14.000  -0.5609   0.17167   0.16412   0.0115   1.0000   0.1113
 -14.250  -0.5703   0.17573   0.16819   0.0120   1.0000   0.1071
 -14.500  -0.5890   0.18425   0.17673   0.0114   1.0000   0.1042
 -14.750  -0.5842   0.18362   0.17603   0.0144   1.0000   0.1031
 -15.000  -0.5861   0.18502   0.17741   0.0168   1.0000   0.0998
 -15.250  -0.5935   0.18823   0.18061   0.0180   1.0000   0.0956
 -15.500  -0.6157   0.19856   0.19098   0.0166   1.0000   0.0912
 -15.750  -0.6121   0.19740   0.18976   0.0198   1.0000   0.0904
 -16.000  -0.6140   0.19815   0.19047   0.0225   1.0000   0.0879
 -16.250  -0.6208   0.20097   0.19329   0.0242   1.0000   0.0844
 -16.500  -0.6301   0.20483   0.19715   0.0252   1.0000   0.0813
 -16.750  -0.6494   0.21516   0.20754   0.0243   1.0000   0.0788
 -17.000  -0.6491   0.21433   0.20667   0.0274   1.0000   0.0783
 -17.250  -0.6523   0.21485   0.20716   0.0303   1.0000   0.0770
 -17.500  -0.6589   0.21715   0.20944   0.0325   1.0000   0.0745
 -17.750  -0.6668   0.22018   0.21247   0.0343   1.0000   0.0720
 -18.000  -0.6756   0.22369   0.21599   0.0357   1.0000   0.0697
 -18.250  -0.6873   0.22951   0.22184   0.0361   1.0000   0.0674
 -18.500  -0.7001   0.23736   0.22967   0.0367   1.0000   0.0664
 -18.750  -0.7028   0.23653   0.22880   0.0398   1.0000   0.0659
 -19.000  -0.7081   0.23711   0.22936   0.0428   1.0000   0.0648
 -19.250  -0.7155   0.23930   0.23155   0.0452   1.0000   0.0629
 -19.500  -0.7237   0.24216   0.23441   0.0473   1.0000   0.0607
 -19.750  -0.7323   0.24530   0.23754   0.0491   1.0000   0.0587
 -20.000  -0.7413   0.24888   0.24114   0.0506   1.0000   0.0567
