  
       XFOIL         Version 6.99
  
 Calculated polar for: ULTIMATE                                        
  
 1 1 Reynolds number fixed          Mach number fixed         
  
 xtrf =   1.000 (top)        1.000 (bottom)  
 Mach =   0.000     Re =     0.050 e 6     Ncrit =   9.000
  
   alpha    CL        CD       CDp       CM     Top_Xtr  Bot_Xtr
  ------ -------- --------- --------- -------- -------- --------
   0.000  -0.0048   0.02422   0.01384   0.0012   1.0000   1.0000
   0.250  -0.0223   0.02433   0.01394   0.0062   1.0000   1.0000
   0.500  -0.0372   0.02449   0.01406   0.0110   1.0000   1.0000
   0.750  -0.0459   0.02476   0.01427   0.0148   1.0000   1.0000
   1.000  -0.0482   0.02516   0.01461   0.0177   1.0000   1.0000
   1.250   0.0047   0.02598   0.01547   0.0105   0.9860   1.0000
   1.500   0.0623   0.02678   0.01633   0.0028   0.9678   1.0000
   1.750   0.1167   0.02749   0.01713  -0.0040   0.9498   1.0000
   2.000   0.1725   0.02812   0.01789  -0.0107   0.9324   1.0000
   2.250   0.2199   0.02867   0.01856  -0.0157   0.9142   1.0000
   2.500   0.2642   0.02919   0.01923  -0.0198   0.8956   1.0000
   2.750   0.3138   0.02963   0.01985  -0.0246   0.8773   1.0000
   3.000   0.3653   0.02991   0.02036  -0.0292   0.8588   1.0000
   3.250   0.4173   0.02992   0.02062  -0.0331   0.8401   1.0000
   3.500   0.4395   0.03036   0.02118  -0.0322   0.8181   1.0000
   3.750   0.4751   0.03037   0.02141  -0.0327   0.7972   1.0000
   4.000   0.5141   0.03004   0.02130  -0.0330   0.7776   1.0000
   4.250   0.5310   0.03044   0.02185  -0.0307   0.7546   1.0000
   4.500   0.5621   0.03008   0.02172  -0.0292   0.7336   1.0000
   4.750   0.5842   0.03007   0.02189  -0.0267   0.7102   1.0000
   5.000   0.6125   0.02897   0.02097  -0.0231   0.6822   1.0000
   5.250   0.6347   0.02651   0.01849  -0.0157   0.6352   1.0000
   5.500   0.6512   0.02514   0.01706  -0.0097   0.5858   1.0000
   5.750   0.6668   0.02437   0.01627  -0.0048   0.5333   1.0000
   6.000   0.6749   0.02379   0.01544   0.0012   0.4375   1.0000
   6.250   0.6672   0.02608   0.01600   0.0080   0.2436   1.0000
   6.500   0.6797   0.02857   0.01784   0.0106   0.1875   1.0000
   6.750   0.7001   0.03053   0.01947   0.0122   0.1616   1.0000
   7.000   0.7251   0.03243   0.02132   0.0133   0.1457   1.0000
   7.250   0.7510   0.03447   0.02329   0.0141   0.1344   1.0000
   7.500   0.7739   0.03656   0.02571   0.0154   0.1261   1.0000
   7.750   0.7985   0.03908   0.02828   0.0162   0.1210   1.0000
   8.000   0.8179   0.04198   0.03153   0.0175   0.1178   1.0000
   8.250   0.8322   0.04481   0.03488   0.0194   0.1146   1.0000
   8.500   0.8443   0.04792   0.03840   0.0213   0.1123   1.0000
   8.750   0.8522   0.05158   0.04251   0.0234   0.1124   1.0000
   9.000   0.8550   0.05561   0.04698   0.0255   0.1135   1.0000
   9.250   0.8528   0.05987   0.05162   0.0277   0.1149   1.0000
   9.500   0.8469   0.06424   0.05630   0.0297   0.1164   1.0000
   9.750   0.8398   0.06872   0.06102   0.0314   0.1177   1.0000
  10.000   0.8337   0.07335   0.06579   0.0327   0.1188   1.0000
  10.000   0.8337   0.07335   0.06579   0.0327   0.1188   1.0000
  10.100   0.8324   0.07528   0.06775   0.0331   0.1192   1.0000
  10.200   0.8340   0.07729   0.06978   0.0333   0.1196   1.0000
  10.500   0.7153   0.08726   0.08003   0.0309   0.1290   1.0000
  10.750   0.7151   0.09295   0.08570   0.0299   0.1328   1.0000
  11.000   0.5686   0.12975   0.12210  -0.0063   0.3004   1.0000
  11.250   0.5875   0.13530   0.12772  -0.0065   0.2977   1.0000
  11.500   0.5658   0.13740   0.12969  -0.0081   0.2908   1.0000
  11.750   0.5954   0.14323   0.13561  -0.0073   0.2826   1.0000
  12.000   0.5729   0.14474   0.13700  -0.0091   0.2751   1.0000
  12.250   0.5940   0.14991   0.14222  -0.0088   0.2683   1.0000
  12.500   0.5812   0.15224   0.14446  -0.0104   0.2619   1.0000
  12.750   0.5934   0.15642   0.14866  -0.0106   0.2546   1.0000
  13.000   0.5952   0.16025   0.15246  -0.0116   0.2498   1.0000
  13.250   0.5988   0.16323   0.15542  -0.0123   0.2406   1.0000
  13.500   0.6059   0.16749   0.15966  -0.0130   0.2350   1.0000
  13.750   0.6095   0.17028   0.16247  -0.0138   0.2254   1.0000
  14.000   0.6170   0.17459   0.16675  -0.0146   0.2202   1.0000
  14.250   0.6176   0.17697   0.16910  -0.0159   0.2118   1.0000
  14.500   0.6446   0.18468   0.17687  -0.0154   0.2069   1.0000
  14.750   0.6271   0.18390   0.17599  -0.0184   0.2012   1.0000
  15.000   0.6407   0.18825   0.18037  -0.0187   0.1945   1.0000
  15.250   0.6497   0.19302   0.18512  -0.0197   0.1911   1.0000
  15.500   0.6458   0.19412   0.18617  -0.0221   0.1843   1.0000
  15.750   0.6779   0.20358   0.19573  -0.0205   0.1773   1.0000
  16.000   0.6611   0.20148   0.19351  -0.0244   0.1740   1.0000
  16.250   0.6684   0.20448   0.19654  -0.0256   0.1667   1.0000
  16.500   0.6905   0.21245   0.20454  -0.0251   0.1623   1.0000
  16.750   0.6807   0.21124   0.20325  -0.0288   0.1583   1.0000
  17.000   0.6885   0.21439   0.20640  -0.0302   0.1527   1.0000
  17.250   0.7200   0.22588   0.21798  -0.0284   0.1481   1.0000
  17.500   0.7066   0.22264   0.21464  -0.0327   0.1464   1.0000
  17.750   0.7089   0.22420   0.21618  -0.0353   0.1413   1.0000
  18.000   0.7203   0.22821   0.22020  -0.0361   0.1365   1.0000
  18.250   0.7397   0.23683   0.22888  -0.0358   0.1335   1.0000
  18.500   0.7335   0.23481   0.22678  -0.0400   0.1309   1.0000
  18.750   0.7396   0.23722   0.22919  -0.0421   0.1257   1.0000
  19.000   0.7547   0.24279   0.23480  -0.0421   0.1210   1.0000
  19.250   0.7651   0.24834   0.24034  -0.0434   0.1191   1.0000
  19.500   0.7638   0.24741   0.23936  -0.0473   0.1163   1.0000
  19.750   0.7708   0.25004   0.24199  -0.0495   0.1123   1.0000
  20.000   0.7810   0.25382   0.24578  -0.0507   0.1088   1.0000
   0.000  -0.0048   0.02422   0.01384   0.0012   1.0000   1.0000
  -0.250   0.0118   0.02415   0.01377  -0.0038   1.0000   1.0000
  -0.500   0.0258   0.02413   0.01375  -0.0085   1.0000   1.0000
  -0.750   0.0361   0.02419   0.01379  -0.0126   1.0000   1.0000
  -1.000   0.0422   0.02436   0.01394  -0.0161   1.0000   1.0000
  -1.250   0.0434   0.02468   0.01423  -0.0186   1.0000   1.0000
  -1.500   0.0213   0.02534   0.01489  -0.0169   1.0000   0.9952
  -1.750  -0.0442   0.02621   0.01582  -0.0076   1.0000   0.9747
  -2.000  -0.1064   0.02691   0.01660   0.0006   1.0000   0.9541
  -2.250  -0.1670   0.02747   0.01728   0.0082   1.0000   0.9326
  -2.500  -0.2267   0.02794   0.01789   0.0151   1.0000   0.9110
  -2.750  -0.2834   0.02828   0.01841   0.0211   1.0000   0.8886
  -3.000  -0.3596   0.02824   0.01862   0.0299   1.0000   0.8687
  -3.250  -0.4048   0.02842   0.01898   0.0332   1.0000   0.8439
  -3.500  -0.4761   0.02793   0.01879   0.0399   1.0000   0.8221
  -3.750  -0.5080   0.02806   0.01908   0.0400   1.0000   0.7966
  -4.000  -0.5580   0.02762   0.01888   0.0423   1.0000   0.7731
  -4.250  -0.5838   0.02774   0.01915   0.0410   1.0000   0.7476
  -4.750  -0.6461   0.02743   0.01916   0.0389   1.0000   0.6968
  -4.600  -0.6304   0.02746   0.01911   0.0400   1.0000   0.7125
  -4.700  -0.6346   0.02769   0.01939   0.0386   1.0000   0.7016
  -5.000  -0.6667   0.02754   0.01940   0.0363   1.0000   0.6689
  -5.250  -0.6916   0.02729   0.01925   0.0338   1.0000   0.6382
  -5.500  -0.7166   0.02640   0.01837   0.0303   1.0000   0.5975
  -5.750  -0.7351   0.02550   0.01735   0.0257   1.0000   0.5490
  -6.000  -0.7500   0.02515   0.01687   0.0214   1.0000   0.4997
  -6.250  -0.7600   0.02516   0.01668   0.0166   1.0000   0.4414
  -6.500  -0.7601   0.02562   0.01677   0.0104   1.0000   0.3582
  -6.750  -0.7548   0.02723   0.01748   0.0040   1.0000   0.2561
  -7.000  -0.7658   0.02950   0.01909   0.0009   1.0000   0.1992
  -7.250  -0.7878   0.03169   0.02103  -0.0003   1.0000   0.1694
  -7.500  -0.8118   0.03379   0.02310  -0.0012   1.0000   0.1505
  -7.750  -0.8382   0.03621   0.02560  -0.0018   1.0000   0.1388
  -8.000  -0.8645   0.03884   0.02815  -0.0020   1.0000   0.1294
  -8.250  -0.8804   0.04125   0.03109  -0.0040   1.0000   0.1232
  -8.500  -0.9005   0.04414   0.03421  -0.0052   1.0000   0.1191
  -8.750  -0.9198   0.04773   0.03788  -0.0059   1.0000   0.1157
  -9.000  -0.9235   0.05084   0.04162  -0.0090   1.0000   0.1139
  -9.250  -0.9245   0.05430   0.04559  -0.0118   1.0000   0.1126
  -9.500  -0.9222   0.05810   0.04985  -0.0144   1.0000   0.1121
  -9.750  -0.9166   0.06222   0.05433  -0.0169   1.0000   0.1127
 -10.000  -0.9076   0.06653   0.05893  -0.0191   1.0000   0.1137
 -10.250  -0.8987   0.07105   0.06366  -0.0209   1.0000   0.1148
 -10.500  -0.8989   0.07604   0.06875  -0.0217   1.0000   0.1159
 -10.750  -0.7930   0.08264   0.07579  -0.0222   1.0000   0.1212
 -11.000  -0.7532   0.09221   0.08538  -0.0165   1.0000   0.1268
 -11.250  -0.7443   0.09900   0.09216  -0.0137   1.0000   0.1289
 -11.500  -0.6070   0.13622   0.12901   0.0222   1.0000   0.2867
 -11.750  -0.6106   0.14023   0.13303   0.0232   1.0000   0.2822
 -12.000  -0.6235   0.14510   0.13793   0.0238   1.0000   0.2790
 -12.250  -0.6232   0.14924   0.14204   0.0251   1.0000   0.2756
 -12.500  -0.6197   0.15194   0.14472   0.0262   1.0000   0.2669
 -12.750  -0.6348   0.15715   0.14995   0.0266   1.0000   0.2612
 -13.000  -0.6292   0.15923   0.15199   0.0279   1.0000   0.2517
 -13.250  -0.6430   0.16438   0.15715   0.0284   1.0000   0.2461
 -13.500  -0.6373   0.16627   0.15901   0.0301   1.0000   0.2379
 -13.750  -0.6707   0.17441   0.16723   0.0294   1.0000   0.2324
 -14.000  -0.6470   0.17352   0.16625   0.0326   1.0000   0.2268
 -14.250  -0.6635   0.17824   0.17102   0.0327   1.0000   0.2193
 -14.500  -0.6630   0.18127   0.17401   0.0346   1.0000   0.2149
 -14.750  -0.6695   0.18425   0.17699   0.0357   1.0000   0.2060
 -15.000  -0.6806   0.18914   0.18188   0.0366   1.0000   0.2013
 -15.250  -0.6785   0.19063   0.18335   0.0389   1.0000   0.1939
 -15.500  -0.7077   0.19901   0.19181   0.0379   1.0000   0.1882
 -15.750  -0.6947   0.19832   0.19102   0.0416   1.0000   0.1850
 -16.000  -0.6995   0.20092   0.19362   0.0434   1.0000   0.1784
 -16.250  -0.7309   0.21102   0.20382   0.0420   1.0000   0.1731
 -16.500  -0.7156   0.20841   0.20111   0.0464   1.0000   0.1703
 -16.750  -0.7214   0.21095   0.20366   0.0483   1.0000   0.1635
 -17.000  -0.7468   0.22003   0.21280   0.0472   1.0000   0.1583
 -17.250  -0.7366   0.21794   0.21063   0.0517   1.0000   0.1550
 -17.500  -0.7440   0.22075   0.21345   0.0535   1.0000   0.1490
 -17.750  -0.7689   0.23000   0.22279   0.0523   1.0000   0.1445
 -18.000  -0.7646   0.22954   0.22225   0.0561   1.0000   0.1429
 -18.250  -0.7662   0.23049   0.22318   0.0593   1.0000   0.1383
 -18.500  -0.7760   0.23392   0.22663   0.0608   1.0000   0.1337
 -18.750  -0.8040   0.24637   0.23917   0.0590   1.0000   0.1299
 -19.000  -0.7955   0.24248   0.23521   0.0639   1.0000   0.1286
 -19.250  -0.7982   0.24326   0.23596   0.0672   1.0000   0.1243
 -19.500  -0.8079   0.24660   0.23932   0.0688   1.0000   0.1196
 -19.750  -0.8331   0.25906   0.25185   0.0670   1.0000   0.1159
 -20.000  -0.8276   0.25523   0.24796   0.0719   1.0000   0.1148
