  
       XFOIL         Version 6.99
  
 Calculated polar for: S4096 (designed for the E-flite UMX ASK-21 scale
  
 1 1 Reynolds number fixed          Mach number fixed         
  
 xtrf =   1.000 (top)        1.000 (bottom)  
 Mach =   0.000     Re =     0.050 e 6     Ncrit =   9.000
  
   alpha    CL        CD       CDp       CM     Top_Xtr  Bot_Xtr
  ------ -------- --------- --------- -------- -------- --------
   0.000   0.1705   0.02891   0.01780  -0.0408   0.9994   1.0006
   0.250   0.1890   0.03046   0.01930  -0.0412   0.9994   1.0006
   0.500   0.2070   0.03209   0.02089  -0.0416   0.9994   1.0006
   0.750   0.2244   0.03379   0.02257  -0.0422   0.9994   1.0006
   1.000   0.2440   0.03539   0.02415  -0.0432   0.9984   1.0006
   1.250   0.3068   0.03510   0.02381  -0.0517   0.9835   1.0006
   1.500   0.3663   0.03463   0.02333  -0.0594   0.9664   1.0006
   1.750   0.4255   0.03405   0.02276  -0.0666   0.9487   1.0006
   2.000   0.4876   0.03320   0.02197  -0.0741   0.9318   1.0006
   2.250   0.5489   0.03226   0.02109  -0.0809   0.9145   1.0006
   2.500   0.6032   0.03150   0.02042  -0.0858   0.8958   1.0006
   2.750   0.6409   0.03145   0.02044  -0.0874   0.8714   1.0006
   3.000   0.6789   0.03131   0.02036  -0.0884   0.8498   1.0006
   3.250   0.7068   0.03169   0.02081  -0.0877   0.8241   1.0006
   3.500   0.7342   0.03203   0.02119  -0.0866   0.8003   1.0006
   3.750   0.7598   0.03244   0.02164  -0.0851   0.7761   1.0006
   4.000   0.7842   0.03296   0.02223  -0.0835   0.7513   1.0006
   4.250   0.8089   0.03333   0.02262  -0.0816   0.7284   1.0006
   4.500   0.8329   0.03391   0.02327  -0.0801   0.7025   1.0006
   4.750   0.8574   0.03437   0.02376  -0.0784   0.6790   1.0006
   5.000   0.8819   0.03485   0.02429  -0.0768   0.6541   1.0006
   5.250   0.9066   0.03541   0.02491  -0.0755   0.6284   1.0006
   5.500   0.9317   0.03574   0.02520  -0.0737   0.6055   1.0006
   5.750   0.9566   0.03635   0.02591  -0.0726   0.5787   1.0006
   6.000   0.9816   0.03692   0.02654  -0.0715   0.5526   1.0006
   6.250   1.0072   0.03732   0.02690  -0.0701   0.5285   1.0006
   6.500   1.0325   0.03788   0.02755  -0.0691   0.5022   1.0006
   6.750   1.0577   0.03854   0.02827  -0.0682   0.4756   1.0006
   7.000   1.0831   0.03918   0.02891  -0.0672   0.4503   1.0006
   7.250   1.1089   0.03971   0.02936  -0.0661   0.4258   1.0006
   7.500   1.1335   0.04070   0.03047  -0.0655   0.3992   1.0006
   7.750   1.1583   0.04176   0.03158  -0.0647   0.3742   1.0006
   8.000   1.1839   0.04262   0.03230  -0.0639   0.3510   1.0006
   8.250   1.2071   0.04418   0.03408  -0.0633   0.3264   1.0006
   8.500   1.2318   0.04544   0.03527  -0.0627   0.3046   1.0006
   8.750   1.2540   0.04726   0.03731  -0.0621   0.2828   1.0006
   9.000   1.2784   0.04870   0.03867  -0.0614   0.2632   1.0006
   9.250   1.2993   0.05092   0.04111  -0.0608   0.2448   1.0006
   9.500   1.3190   0.05330   0.04377  -0.0600   0.2278   1.0006
   9.750   1.3380   0.05581   0.04651  -0.0592   0.2125   1.0006
  10.000   1.3555   0.05861   0.04954  -0.0583   0.1991   1.0006
  10.250   1.3726   0.06149   0.05261  -0.0573   0.1871   1.0006
  10.500   1.3922   0.06407   0.05522  -0.0565   0.1753   1.0006
  10.750   1.3861   0.06961   0.06159  -0.0541   0.1688   1.0006
  11.000   1.3984   0.07281   0.06490  -0.0528   0.1596   1.0006
  11.250   1.3778   0.07903   0.07176  -0.0497   0.1564   1.0006
  11.500   1.3502   0.08551   0.07865  -0.0467   0.1551   1.0006
  11.750   1.3068   0.09326   0.08671  -0.0439   0.1571   1.0006
  12.000   1.2614   0.10137   0.09495  -0.0423   0.1597   1.0006
  12.250   1.2235   0.11092   0.10457  -0.0442   0.1614   1.0006
  12.250   1.2234   0.11092   0.10457  -0.0442   0.1614   1.0006
  12.350   1.2101   0.11507   0.10874  -0.0456   0.1619   1.0006
  13.250   0.9760   0.19542   0.18827  -0.1039   0.2957   1.0006
  13.500   0.9878   0.20080   0.19370  -0.1050   0.2898   1.0006
  13.750   0.9894   0.20383   0.19675  -0.1068   0.2803   1.0006
  14.000   0.9945   0.20813   0.20109  -0.1085   0.2734   1.0006
  14.250   1.0223   0.21544   0.20855  -0.1078   0.2620   1.0006
  14.500   1.0057   0.21556   0.20860  -0.1120   0.2554   1.0006
  14.750   1.0290   0.22274   0.21589  -0.1117   0.2470   1.0006
  15.000   1.0220   0.22360   0.21671  -0.1152   0.2379   1.0006
  15.250   1.0349   0.22921   0.22238  -0.1162   0.2314   1.0006
  15.500   1.0411   0.23227   0.22547  -0.1181   0.2213   1.0006
  15.750   1.0444   0.23595   0.22914  -0.1209   0.2146   1.0006
  16.000   1.0714   0.24490   0.23821  -0.1194   0.2041   1.0006
  16.250   1.0591   0.24363   0.23686  -0.1251   0.1987   1.0006
  16.500   1.0834   0.25232   0.24566  -0.1239   0.1897   1.0006
  16.750   1.0751   0.25148   0.24476  -0.1295   0.1840   1.0006
  17.000   1.1001   0.26080   0.25417  -0.1278   0.1756   1.0006
  17.250   1.0918   0.25941   0.25270  -0.1339   0.1710   1.0006
  17.500   1.1059   0.26440   0.25775  -0.1346   0.1639   1.0006
  17.750   1.1144   0.26937   0.26270  -0.1370   0.1606   1.0006
  18.000   1.1170   0.27075   0.26407  -0.1411   0.1540   1.0006
  18.250   1.1453   0.28320   0.27662  -0.1382   0.1480   1.0006
  18.500   1.1371   0.27985   0.27319  -0.1451   0.1461   1.0006
  18.750   1.1426   0.28215   0.27549  -0.1488   0.1407   1.0006
  19.000   1.1573   0.28781   0.28120  -0.1492   0.1360   1.0006
  19.250   1.1679   0.29370   0.28712  -0.1512   0.1337   1.0006
  19.500   1.1689   0.29344   0.28682  -0.1566   0.1295   1.0006
  19.750   1.1793   0.29722   0.29064  -0.1586   0.1243   1.0006
  20.000   1.2038   0.31133   0.30483  -0.1559   0.1210   1.0006
   0.000   0.1705   0.02891   0.01780  -0.0408   0.9994   1.0006
  -0.250   0.1510   0.02749   0.01645  -0.0406   0.9994   1.0006
  -0.500   0.1305   0.02622   0.01526  -0.0404   0.9994   1.0006
  -0.750   0.1090   0.02514   0.01427  -0.0403   0.9994   1.0006
  -1.000   0.0862   0.02427   0.01350  -0.0401   0.9994   1.0006
  -1.250   0.0622   0.02357   0.01293  -0.0399   0.9994   1.0006
  -1.500   0.0371   0.02301   0.01252  -0.0396   0.9994   1.0006
  -1.750   0.0113   0.02257   0.01225  -0.0393   0.9994   1.0006
  -2.000  -0.0152   0.02224   0.01214  -0.0389   0.9994   1.0006
  -2.250  -0.0424   0.02201   0.01215  -0.0383   0.9994   1.0006
  -2.500  -0.0701   0.02186   0.01229  -0.0377   0.9994   1.0006
  -2.750  -0.0984   0.02179   0.01259  -0.0369   0.9994   1.0006
  -3.000  -0.1274   0.02183   0.01306  -0.0357   0.9994   1.0006
  -3.250  -0.1578   0.02214   0.01394  -0.0335   0.9994   1.0006
  -3.500  -0.2010   0.02368   0.01550  -0.0326   0.9994   0.7806
  -3.750  -0.2095   0.02481   0.01584  -0.0398   0.9994   0.6101
  -4.000  -0.2265   0.02662   0.01626  -0.0435   0.9994   0.3795
  -4.250  -0.2535   0.02913   0.01749  -0.0439   0.9994   0.2054
  -4.500  -0.2817   0.03110   0.01916  -0.0442   0.9994   0.1634
  -4.750  -0.3117   0.03308   0.02122  -0.0444   0.9994   0.1453
  -5.000  -0.3415   0.03523   0.02343  -0.0443   0.9994   0.1350
  -5.250  -0.3733   0.03759   0.02624  -0.0439   0.9994   0.1270
  -5.500  -0.4038   0.04014   0.02901  -0.0433   0.9994   0.1218
  -5.750  -0.4352   0.04341   0.03263  -0.0425   0.9994   0.1205
  -6.000  -0.4706   0.04778   0.03795  -0.0405   0.9994   0.1233
  -6.250  -0.5046   0.05321   0.04418  -0.0376   0.9994   0.1276
  -6.500  -0.5348   0.05856   0.04998  -0.0349   0.9994   0.1311
  -6.500  -0.5348   0.05856   0.04998  -0.0349   0.9994   0.1311
  -6.600  -0.5456   0.06059   0.05210  -0.0341   0.9994   0.1324
  -6.700  -0.5564   0.06252   0.05408  -0.0336   0.9994   0.1344
  -7.000  -0.5921   0.09698   0.09057   0.0215   0.9994   0.3615
  -7.250  -0.6078   0.10133   0.09490   0.0196   0.9994   0.3441
  -7.500  -0.6161   0.10565   0.09920   0.0190   0.9994   0.3285
  -7.750  -0.6172   0.10963   0.10314   0.0195   0.9994   0.3135
  -7.750  -0.6172   0.10963   0.10314   0.0195   0.9994   0.3135
  -7.850  -0.5929   0.11045   0.10386   0.0211   0.9994   0.3082
  -7.950  -0.5930   0.11183   0.10523   0.0208   0.9994   0.3025
  -8.250  -0.5892   0.11650   0.10982   0.0206   0.9994   0.2890
  -8.500  -0.5957   0.12089   0.11418   0.0204   0.9994   0.2795
  -8.750  -0.6287   0.12658   0.11992   0.0189   0.9994   0.2673
  -9.000  -0.5930   0.12832   0.12151   0.0211   0.9994   0.2581
  -9.250  -0.6039   0.13305   0.12624   0.0210   0.9994   0.2503
  -9.500  -0.6080   0.13669   0.12986   0.0213   0.9994   0.2395
  -9.750  -0.6009   0.14031   0.13339   0.0229   0.9994   0.2324
 -10.000  -0.6288   0.14624   0.13936   0.0213   0.9994   0.2220
 -10.250  -0.6070   0.14788   0.14089   0.0246   0.9994   0.2148
 -10.500  -0.6280   0.15349   0.14651   0.0237   0.9994   0.2066
 -10.750  -0.6163   0.15555   0.14850   0.0265   0.9994   0.1987
 -11.000  -0.6388   0.16166   0.15463   0.0255   0.9994   0.1920
 -11.250  -0.6252   0.16322   0.15611   0.0289   0.9994   0.1856
 -11.500  -0.6519   0.16961   0.16255   0.0275   0.9994   0.1785
 -11.750  -0.4723   0.15756   0.15093   0.0072   0.9994   0.1923
 -12.000  -0.4470   0.15551   0.14885   0.0084   0.9994   0.1892
 -12.250  -0.4504   0.15793   0.15127   0.0088   0.9994   0.1813
 -12.500  -0.4637   0.16313   0.15646   0.0091   0.9994   0.1769
 -12.750  -0.4497   0.16241   0.15572   0.0105   0.9994   0.1723
 -13.000  -0.4575   0.16564   0.15897   0.0109   0.9994   0.1661
 -13.250  -0.4740   0.17187   0.16518   0.0113   0.9994   0.1625
 -13.500  -0.4593   0.17046   0.16376   0.0129   0.9994   0.1592
 -13.750  -0.4617   0.17268   0.16597   0.0139   0.9994   0.1537
 -14.000  -0.4958   0.18336   0.17669   0.0135   0.9994   0.1483
 -14.250  -0.4776   0.18055   0.17386   0.0153   0.9994   0.1472
 -14.500  -0.4715   0.18071   0.17401   0.0170   0.9994   0.1432
 -14.750  -0.4768   0.18347   0.17677   0.0178   0.9994   0.1382
 -15.000  -0.5027   0.19281   0.18612   0.0176   0.9994   0.1336
 -15.250  -0.4893   0.19060   0.18389   0.0197   0.9994   0.1323
 -15.500  -0.4869   0.19145   0.18474   0.0213   0.9994   0.1281
 -15.750  -0.4930   0.19441   0.18771   0.0222   0.9994   0.1234
 -16.000  -0.5211   0.20529   0.19861   0.0218   0.9994   0.1193
 -16.250  -0.5098   0.20314   0.19644   0.0239   0.9994   0.1186
 -16.500  -0.5054   0.20316   0.19645   0.0259   0.9994   0.1162
 -16.750  -0.5081   0.20536   0.19866   0.0273   0.9994   0.1127
 -17.000  -0.5140   0.20844   0.20177   0.0284   0.9994   0.1094
 -17.250  -0.5267   0.21392   0.20727   0.0287   0.9994   0.1063
 -17.500  -0.5381   0.22033   0.21367   0.0295   0.9994   0.1049
 -17.750  -0.5320   0.21927   0.21261   0.0317   0.9994   0.1039
 -18.000  -0.5315   0.22034   0.21368   0.0336   0.9994   0.1016
 -18.250  -0.5351   0.22286   0.21621   0.0350   0.9994   0.0986
 -18.500  -0.5407   0.22596   0.21932   0.0362   0.9994   0.0956
 -18.750  -0.5505   0.23068   0.22406   0.0368   0.9994   0.0927
 -19.000  -0.5652   0.23901   0.23239   0.0372   0.9994   0.0910
 -19.250  -0.5600   0.23783   0.23120   0.0395   0.9994   0.0903
 -19.500  -0.5594   0.23863   0.23203   0.0415   0.9994   0.0885
 -19.750  -0.5626   0.24109   0.23451   0.0431   0.9994   0.0860
 -20.000  -0.5673   0.24409   0.23752   0.0445   0.9994   0.0835
