  
       XFOIL         Version 6.99
  
 Calculated polar for: MH 70  11.08%                                   
  
 1 1 Reynolds number fixed          Mach number fixed         
  
 xtrf =   1.000 (top)        1.000 (bottom)  
 Mach =   0.000     Re =     0.050 e 6     Ncrit =   9.000
  
   alpha    CL        CD       CDp       CM     Top_Xtr  Bot_Xtr
  ------ -------- --------- --------- -------- -------- --------
   0.000   0.1463   0.02795   0.01863  -0.0528   0.9112   1.0000
   0.250   0.1851   0.02873   0.01921  -0.0555   0.8966   1.0000
   0.500   0.2206   0.02949   0.01980  -0.0575   0.8818   1.0000
   0.750   0.2556   0.03024   0.02040  -0.0593   0.8668   1.0000
   1.000   0.2905   0.03097   0.02100  -0.0610   0.8515   1.0000
   1.250   0.3244   0.03168   0.02161  -0.0624   0.8363   1.0000
   1.500   0.3588   0.03235   0.02221  -0.0637   0.8208   1.0000
   1.750   0.3932   0.03299   0.02278  -0.0649   0.8052   1.0000
   2.000   0.4273   0.03359   0.02333  -0.0659   0.7895   1.0000
   2.250   0.4608   0.03414   0.02384  -0.0666   0.7738   1.0000
   2.500   0.4922   0.03465   0.02433  -0.0669   0.7581   1.0000
   2.750   0.5232   0.03509   0.02476  -0.0668   0.7423   1.0000
   3.000   0.5539   0.03546   0.02514  -0.0666   0.7265   1.0000
   3.250   0.5838   0.03578   0.02546  -0.0661   0.7108   1.0000
   3.500   0.6135   0.03602   0.02571  -0.0654   0.6951   1.0000
   3.750   0.6429   0.03619   0.02590  -0.0646   0.6794   1.0000
   4.000   0.6721   0.03626   0.02602  -0.0635   0.6638   1.0000
   4.250   0.7012   0.03627   0.02606  -0.0624   0.6481   1.0000
   4.500   0.7173   0.03713   0.02696  -0.0607   0.6295   1.0000
   4.750   0.7422   0.03738   0.02728  -0.0593   0.6128   1.0000
   5.000   0.7687   0.03747   0.02741  -0.0579   0.5964   1.0000
   5.250   0.7959   0.03746   0.02745  -0.0564   0.5800   1.0000
   5.500   0.8237   0.03738   0.02742  -0.0550   0.5636   1.0000
   5.750   0.8526   0.03717   0.02729  -0.0535   0.5472   1.0000
   6.000   0.8819   0.03695   0.02712  -0.0521   0.5309   1.0000
   6.250   0.9123   0.03661   0.02684  -0.0506   0.5144   1.0000
   6.500   0.9419   0.03643   0.02668  -0.0493   0.4979   1.0000
   6.750   0.9726   0.03616   0.02641  -0.0480   0.4811   1.0000
   7.000   0.9962   0.03667   0.02698  -0.0467   0.4640   1.0000
   7.250   1.0141   0.03770   0.02811  -0.0452   0.4464   1.0000
   7.500   1.0344   0.03859   0.02908  -0.0438   0.4296   1.0000
   7.750   1.0554   0.03946   0.03002  -0.0425   0.4132   1.0000
   8.000   1.0759   0.04044   0.03110  -0.0412   0.3975   1.0000
   8.250   1.0953   0.04158   0.03233  -0.0399   0.3823   1.0000
   8.500   1.1139   0.04280   0.03363  -0.0386   0.3676   1.0000
   8.750   1.1316   0.04421   0.03516  -0.0373   0.3536   1.0000
   9.000   1.1502   0.04554   0.03657  -0.0360   0.3400   1.0000
   9.250   1.1711   0.04675   0.03784  -0.0349   0.3267   1.0000
   9.500   1.1949   0.04781   0.03893  -0.0339   0.3133   1.0000
   9.750   1.1722   0.05248   0.04400  -0.0313   0.3051   1.0000
  10.000   1.1805   0.05480   0.04647  -0.0299   0.2947   1.0000
  10.250   1.2065   0.05574   0.04744  -0.0289   0.2824   1.0000
  10.500   1.1518   0.06317   0.05514  -0.0264   0.2811   1.0000
  10.750   1.0696   0.07482   0.06675  -0.0273   0.2836   1.0000
  11.000   1.1214   0.07205   0.06416  -0.0243   0.2689   1.0000
   0.000   0.1463   0.02795   0.01863  -0.0528   0.9112   1.0000
  -0.250   0.1041   0.02710   0.01803  -0.0494   0.9252   1.0000
  -0.150   0.1145   0.02736   0.01821  -0.0497   0.9189   1.0000
  -0.050   0.1353   0.02774   0.01848  -0.0517   0.9135   1.0000
   0.250   0.1851   0.02873   0.01921  -0.0555   0.8966   1.0000
   0.000   0.1463   0.02795   0.01863  -0.0528   0.9112   1.0000
   0.100   0.1526   0.02818   0.01881  -0.0524   0.9046   1.0000
   0.200   0.1719   0.02852   0.01906  -0.0541   0.8989   1.0000
   0.500   0.2206   0.02949   0.01980  -0.0575   0.8818   1.0000
   0.250   0.1851   0.02873   0.01921  -0.0555   0.8966   1.0000
   0.350   0.1897   0.02899   0.01941  -0.0548   0.8900   1.0000
   0.450   0.2075   0.02930   0.01965  -0.0562   0.8842   1.0000
   0.750   0.2556   0.03024   0.02040  -0.0593   0.8668   1.0000
   0.500   0.2206   0.02949   0.01980  -0.0575   0.8818   1.0000
   0.600   0.2261   0.02978   0.02004  -0.0569   0.8750   1.0000
   0.700   0.2427   0.03008   0.02027  -0.0581   0.8692   1.0000
   1.000   0.2905   0.03097   0.02100  -0.0610   0.8515   1.0000
   0.750   0.2556   0.03024   0.02040  -0.0593   0.8668   1.0000
   0.850   0.2614   0.03055   0.02067  -0.0588   0.8602   1.0000
   0.000   0.1463   0.02795   0.01863  -0.0528   0.9112   1.0000
  -0.250   0.1041   0.02710   0.01803  -0.0494   0.9252   1.0000
  -0.150   0.1145   0.02736   0.01821  -0.0497   0.9189   1.0000
  -0.050   0.1353   0.02774   0.01848  -0.0517   0.9135   1.0000
   0.250   0.1851   0.02873   0.01921  -0.0555   0.8966   1.0000
   0.000   0.1463   0.02795   0.01863  -0.0528   0.9112   1.0000
   0.100   0.1526   0.02818   0.01881  -0.0524   0.9046   1.0000
   0.200   0.1719   0.02852   0.01906  -0.0541   0.8989   1.0000
   0.500   0.2206   0.02949   0.01980  -0.0575   0.8818   1.0000
   0.250   0.1851   0.02873   0.01921  -0.0555   0.8966   1.0000
   0.350   0.1897   0.02899   0.01941  -0.0548   0.8900   1.0000
   0.450   0.2075   0.02930   0.01965  -0.0562   0.8842   1.0000
   0.750   0.2556   0.03024   0.02040  -0.0593   0.8668   1.0000
   0.500   0.2206   0.02949   0.01980  -0.0575   0.8818   1.0000
   0.600   0.2261   0.02978   0.02004  -0.0569   0.8750   1.0000
   0.700   0.2427   0.03008   0.02027  -0.0581   0.8692   1.0000
   1.000   0.2905   0.03097   0.02100  -0.0610   0.8515   1.0000
   0.750   0.2556   0.03024   0.02040  -0.0593   0.8668   1.0000
   0.850   0.2614   0.03055   0.02067  -0.0588   0.8602   1.0000
   1.250   0.3244   0.03168   0.02161  -0.0624   0.8363   1.0000
   1.000   0.2905   0.03097   0.02100  -0.0610   0.8515   1.0000
   1.100   0.2963   0.03130   0.02129  -0.0604   0.8448   1.0000
   1.200   0.3114   0.03157   0.02153  -0.0612   0.8387   1.0000
   1.500   0.3588   0.03235   0.02221  -0.0637   0.8208   1.0000
   1.250   0.3244   0.03168   0.02161  -0.0624   0.8363   1.0000
   1.350   0.3304   0.03202   0.02192  -0.0618   0.8295   1.0000
   1.450   0.3453   0.03228   0.02215  -0.0625   0.8232   1.0000
   1.750   0.3932   0.03299   0.02278  -0.0649   0.8052   1.0000
   1.500   0.3588   0.03235   0.02221  -0.0637   0.8208   1.0000
   1.600   0.3641   0.03271   0.02253  -0.0630   0.8138   1.0000
   1.700   0.3790   0.03295   0.02275  -0.0637   0.8076   1.0000
   2.000   0.4273   0.03359   0.02333  -0.0659   0.7895   1.0000
   1.750   0.3931   0.03299   0.02278  -0.0649   0.8052   1.0000
   1.850   0.3973   0.03338   0.02315  -0.0641   0.7982   1.0000
   1.950   0.4125   0.03360   0.02335  -0.0647   0.7920   1.0000
   2.250   0.4608   0.03414   0.02384  -0.0666   0.7738   1.0000
   2.000   0.4273   0.03359   0.02333  -0.0659   0.7895   1.0000
   2.100   0.4301   0.03402   0.02374  -0.0649   0.7824   1.0000
   2.200   0.4468   0.03417   0.02388  -0.0656   0.7761   1.0000
   2.500   0.4922   0.03465   0.02433  -0.0669   0.7581   1.0000
   2.250   0.4608   0.03414   0.02384  -0.0666   0.7738   1.0000
   2.350   0.4627   0.03461   0.02429  -0.0656   0.7664   1.0000
   2.450   0.4793   0.03472   0.02441  -0.0661   0.7603   1.0000
   2.750   0.5232   0.03509   0.02476  -0.0668   0.7423   1.0000
   2.500   0.4922   0.03465   0.02433  -0.0669   0.7581   1.0000
   2.600   0.4939   0.03515   0.02482  -0.0658   0.7504   1.0000
   2.700   0.5106   0.03521   0.02487  -0.0662   0.7444   1.0000
   3.000   0.5539   0.03546   0.02514  -0.0666   0.7265   1.0000
   2.750   0.5232   0.03509   0.02476  -0.0668   0.7423   1.0000
   2.850   0.5237   0.03566   0.02532  -0.0657   0.7343   1.0000
   2.950   0.5410   0.03564   0.02532  -0.0661   0.7286   1.0000
   3.250   0.5838   0.03578   0.02546  -0.0661   0.7108   1.0000
   3.000   0.5539   0.03546   0.02514  -0.0666   0.7265   1.0000
   3.100   0.5529   0.03613   0.02580  -0.0654   0.7183   1.0000
   3.200   0.5709   0.03602   0.02569  -0.0657   0.7127   1.0000
   3.500   0.6135   0.03602   0.02571  -0.0654   0.6951   1.0000
   3.250   0.5838   0.03578   0.02546  -0.0661   0.7108   1.0000
   3.350   0.5820   0.03652   0.02620  -0.0649   0.7021   1.0000
   3.450   0.6008   0.03630   0.02599  -0.0651   0.6969   1.0000
   3.750   0.6429   0.03619   0.02590  -0.0646   0.6794   1.0000
   3.500   0.6135   0.03602   0.02571  -0.0654   0.6951   1.0000
   3.600   0.6103   0.03687   0.02656  -0.0642   0.6860   1.0000
   3.700   0.6304   0.03651   0.02622  -0.0644   0.6811   1.0000
   4.000   0.6721   0.03626   0.02602  -0.0635   0.6638   1.0000
   3.750   0.6429   0.03619   0.02590  -0.0646   0.6794   1.0000
   3.950   0.6598   0.03663   0.02639  -0.0634   0.6654   1.0000
   4.250   0.7012   0.03627   0.02606  -0.0624   0.6481   1.0000
   4.000   0.6721   0.03626   0.02602  -0.0635   0.6638   1.0000
   4.100   0.6675   0.03730   0.02707  -0.0624   0.6540   1.0000
   4.200   0.6888   0.03670   0.02649  -0.0623   0.6497   1.0000
   4.500   0.7173   0.03713   0.02696  -0.0607   0.6295   1.0000
   4.250   0.7012   0.03627   0.02606  -0.0624   0.6481   1.0000
   4.350   0.6963   0.03738   0.02719  -0.0613   0.6381   1.0000
   4.450   0.7182   0.03665   0.02647  -0.0611   0.6340   1.0000
   4.750   0.7422   0.03738   0.02728  -0.0593   0.6128   1.0000
   4.500   0.7173   0.03713   0.02696  -0.0607   0.6295   1.0000
   4.600   0.7253   0.03737   0.02722  -0.0601   0.6222   1.0000
   4.700   0.7476   0.03653   0.02641  -0.0598   0.6183   1.0000
   5.000   0.7687   0.03747   0.02741  -0.0579   0.5964   1.0000
   4.750   0.7422   0.03738   0.02728  -0.0593   0.6128   1.0000
   4.850   0.7541   0.03730   0.02722  -0.0587   0.6063   1.0000
   4.950   0.7772   0.03634   0.02626  -0.0585   0.6027   1.0000
   5.250   0.7959   0.03746   0.02745  -0.0564   0.5800   1.0000
   5.000   0.7687   0.03747   0.02741  -0.0579   0.5964   1.0000
   5.100   0.7835   0.03713   0.02709  -0.0574   0.5905   1.0000
   5.200   0.8076   0.03602   0.02598  -0.0570   0.5870   1.0000
   5.500   0.8237   0.03738   0.02742  -0.0550   0.5636   1.0000
   5.250   0.7959   0.03746   0.02745  -0.0564   0.5800   1.0000
   5.350   0.8133   0.03687   0.02688  -0.0559   0.5746   1.0000
   5.450   0.8230   0.03698   0.02701  -0.0553   0.5680   1.0000
   5.750   0.8526   0.03717   0.02729  -0.0535   0.5472   1.0000
   5.500   0.8237   0.03738   0.02742  -0.0550   0.5636   1.0000
   5.600   0.8437   0.03653   0.02661  -0.0545   0.5586   1.0000
   5.700   0.8474   0.03716   0.02728  -0.0538   0.5507   1.0000
   6.000   0.8819   0.03695   0.02712  -0.0521   0.5309   1.0000
   5.750   0.8526   0.03717   0.02729  -0.0535   0.5472   1.0000
   5.850   0.8745   0.03617   0.02628  -0.0531   0.5426   1.0000
   5.950   0.8741   0.03719   0.02735  -0.0523   0.5340   1.0000
   6.250   0.9123   0.03661   0.02684  -0.0506   0.5144   1.0000
   6.000   0.8819   0.03695   0.02712  -0.0521   0.5309   1.0000
   6.100   0.9056   0.03575   0.02588  -0.0517   0.5264   1.0000
   6.200   0.9024   0.03704   0.02725  -0.0509   0.5172   1.0000
   6.500   0.9419   0.03643   0.02668  -0.0493   0.4979   1.0000
   6.250   0.9123   0.03661   0.02684  -0.0506   0.5144   1.0000
   6.350   0.9250   0.03648   0.02671  -0.0501   0.5082   1.0000
   6.450   0.9309   0.03695   0.02722  -0.0495   0.5005   1.0000
   6.750   0.9726   0.03616   0.02641  -0.0480   0.4811   1.0000
   6.500   0.9419   0.03643   0.02668  -0.0493   0.4979   1.0000
   6.600   0.9463   0.03707   0.02737  -0.0486   0.4904   1.0000
   6.700   0.9605   0.03676   0.02706  -0.0481   0.4837   1.0000
   7.000   0.9962   0.03667   0.02698  -0.0467   0.4640   1.0000
   6.750   0.9726   0.03616   0.02641  -0.0480   0.4811   1.0000
   6.850   0.9708   0.03738   0.02773  -0.0472   0.4730   1.0000
   6.950   0.9891   0.03676   0.02709  -0.0469   0.4670   1.0000
   7.250   1.0141   0.03770   0.02811  -0.0452   0.4464   1.0000
   7.000   0.9962   0.03667   0.02698  -0.0467   0.4640   1.0000
   7.100   0.9960   0.03775   0.02817  -0.0459   0.4562   1.0000
   7.200   1.0183   0.03678   0.02709  -0.0457   0.4503   1.0000
   7.500   1.0344   0.03859   0.02908  -0.0438   0.4296   1.0000
   7.250   1.0141   0.03770   0.02811  -0.0452   0.4464   1.0000
   7.350   1.0220   0.03803   0.02848  -0.0446   0.4393   1.0000
   7.450   1.0380   0.03772   0.02812  -0.0443   0.4333   1.0000
   7.750   1.0554   0.03946   0.03002  -0.0425   0.4132   1.0000
   7.500   1.0344   0.03859   0.02908  -0.0438   0.4296   1.0000
   7.600   1.0465   0.03858   0.02907  -0.0434   0.4230   1.0000
   7.700   1.0565   0.03882   0.02931  -0.0429   0.4167   1.0000
   8.000   1.0759   0.04044   0.03110  -0.0412   0.3975   1.0000
   7.750   1.0554   0.03946   0.03002  -0.0425   0.4132   1.0000
   7.850   1.0711   0.03916   0.02969  -0.0422   0.4068   1.0000
   7.950   1.0758   0.03989   0.03049  -0.0416   0.4006   1.0000
   8.250   1.0953   0.04158   0.03233  -0.0399   0.3823   1.0000
   8.000   1.0759   0.04044   0.03110  -0.0412   0.3975   1.0000
   8.100   1.0931   0.04006   0.03066  -0.0410   0.3912   1.0000
   8.200   1.0954   0.04102   0.03170  -0.0403   0.3854   1.0000
   8.500   1.1139   0.04280   0.03363  -0.0386   0.3676   1.0000
   8.250   1.0953   0.04158   0.03233  -0.0399   0.3823   1.0000
   8.350   1.1135   0.04114   0.03180  -0.0397   0.3759   1.0000
   8.450   1.1148   0.04218   0.03294  -0.0390   0.3704   1.0000
   8.750   1.1316   0.04421   0.03516  -0.0373   0.3536   1.0000
   8.500   1.1139   0.04280   0.03363  -0.0386   0.3676   1.0000
   8.600   1.1303   0.04255   0.03333  -0.0384   0.3613   1.0000
   8.700   1.1347   0.04338   0.03424  -0.0378   0.3561   1.0000
   9.000   1.1502   0.04554   0.03657  -0.0360   0.3400   1.0000
   8.750   1.1316   0.04421   0.03516  -0.0373   0.3536   1.0000
   8.850   1.1428   0.04440   0.03535  -0.0369   0.3477   1.0000
   8.950   1.1553   0.04455   0.03547  -0.0366   0.3421   1.0000
   9.250   1.1711   0.04675   0.03784  -0.0349   0.3267   1.0000
   9.000   1.1502   0.04554   0.03657  -0.0360   0.3400   1.0000
   9.100   1.1515   0.04655   0.03768  -0.0353   0.3349   1.0000
   9.200   1.1779   0.04563   0.03659  -0.0355   0.3283   1.0000
   9.500   1.1949   0.04781   0.03893  -0.0339   0.3133   1.0000
   9.250   1.1711   0.04675   0.03784  -0.0349   0.3267   1.0000
   9.350   1.1621   0.04865   0.03992  -0.0339   0.3229   1.0000
   9.450   1.1786   0.04844   0.03968  -0.0336   0.3168   1.0000
   9.750   1.1722   0.05248   0.04400  -0.0313   0.3051   1.0000
   9.500   1.1949   0.04781   0.03893  -0.0339   0.3133   1.0000
   9.600   1.1804   0.05009   0.04144  -0.0326   0.3105   1.0000
   9.700   1.1706   0.05205   0.04355  -0.0316   0.3074   1.0000
  10.000   1.1805   0.05480   0.04647  -0.0299   0.2947   1.0000
   9.750   1.1722   0.05248   0.04400  -0.0313   0.3051   1.0000
   9.850   1.2041   0.05114   0.04255  -0.0316   0.2976   1.0000
   9.950   1.1884   0.05356   0.04515  -0.0304   0.2956   1.0000
  10.250   1.2065   0.05574   0.04744  -0.0289   0.2824   1.0000
  10.000   1.1805   0.05480   0.04647  -0.0299   0.2947   1.0000
  10.100   1.1639   0.05734   0.04910  -0.0289   0.2930   1.0000
  10.200   1.1424   0.06037   0.05222  -0.0281   0.2923   1.0000
  10.500   1.1518   0.06317   0.05514  -0.0264   0.2811   1.0000
  10.250   1.2065   0.05574   0.04744  -0.0289   0.2824   1.0000
  10.350   1.1870   0.05848   0.05033  -0.0278   0.2814   1.0000
  10.450   1.1647   0.06152   0.05347  -0.0269   0.2810   1.0000
  10.750   1.0619   0.07580   0.06773  -0.0277   0.2843   1.0000
  10.500   1.1085   0.06687   0.05880  -0.0264   0.2865   1.0000
  10.600   1.0901   0.07014   0.06207  -0.0266   0.2856   1.0000
  10.700   1.0704   0.07391   0.06583  -0.0273   0.2847   1.0000
  11.000   1.1214   0.07205   0.06416  -0.0243   0.2689   1.0000
  10.750   1.1863   0.06327   0.05532  -0.0254   0.2679   1.0000
  10.850   1.1620   0.06634   0.05844  -0.0244   0.2681   1.0000
  10.950   1.1357   0.06995   0.06206  -0.0241   0.2686   1.0000
  11.000   1.1214   0.07205   0.06416  -0.0243   0.2689   1.0000
  12.350   0.7734   0.15063   0.14202  -0.0691   0.3826   1.0000
  12.450   0.7785   0.15209   0.14351  -0.0693   0.3787   1.0000
  12.750   0.7854   0.15667   0.14816  -0.0704   0.3701   1.0000
  12.500   0.7837   0.15306   0.14451  -0.0693   0.3771   1.0000
  12.600   0.8058   0.15669   0.14823  -0.0694   0.3740   1.0000
  12.700   0.7909   0.15664   0.14814  -0.0701   0.3723   1.0000
  13.000   0.8107   0.16189   0.15350  -0.0705   0.3586   1.0000
  12.750   0.7854   0.15667   0.14816  -0.0704   0.3701   1.0000
  12.850   0.7867   0.15772   0.14922  -0.0706   0.3649   1.0000
  12.950   0.8125   0.16123   0.15285  -0.0702   0.3593   1.0000
  13.250   0.7999   0.16334   0.15495  -0.0717   0.3483   1.0000
  13.000   0.8107   0.16189   0.15350  -0.0705   0.3586   1.0000
  13.100   0.7968   0.16170   0.15327  -0.0713   0.3558   1.0000
  13.200   0.7960   0.16254   0.15413  -0.0717   0.3506   1.0000
  13.500   0.8147   0.16835   0.16007  -0.0725   0.3427   1.0000
  13.250   0.7999   0.16334   0.15495  -0.0717   0.3483   1.0000
  13.350   0.8137   0.16589   0.15758  -0.0717   0.3452   1.0000
  13.450   0.8221   0.16857   0.16030  -0.0720   0.3435   1.0000
  13.750   0.8147   0.17070   0.16245  -0.0736   0.3323   1.0000
  13.500   0.8147   0.16836   0.16007  -0.0725   0.3427   1.0000
  13.600   0.8064   0.16850   0.16019  -0.0733   0.3388   1.0000
  13.700   0.8097   0.16973   0.16145  -0.0736   0.3343   1.0000
  14.000   0.8178   0.17416   0.16594  -0.0748   0.3243   1.0000
  13.750   0.8147   0.17070   0.16245  -0.0736   0.3323   1.0000
  13.850   0.8346   0.17458   0.16641  -0.0733   0.3286   1.0000
  13.950   0.8217   0.17416   0.16596  -0.0744   0.3267   1.0000
  14.000   0.8178   0.17416   0.16594  -0.0748   0.3243   1.0000
  14.100   0.8211   0.17529   0.16710  -0.0751   0.3190   1.0000
  14.200   0.8369   0.17816   0.17006  -0.0747   0.3150   1.0000
  14.500   0.8301   0.18099   0.17288  -0.0770   0.3073   1.0000
  14.250   0.8497   0.18096   0.17292  -0.0745   0.3139   1.0000
  14.350   0.8375   0.18051   0.17241  -0.0757   0.3127   1.0000
  14.450   0.8299   0.18050   0.17238  -0.0767   0.3093   1.0000
  14.750   0.8590   0.18791   0.17994  -0.0768   0.2987   1.0000
  14.500   0.8301   0.18099   0.17288  -0.0770   0.3073   1.0000
  14.600   0.8352   0.18248   0.17441  -0.0773   0.3034   1.0000
  14.700   0.8511   0.18568   0.17769  -0.0768   0.2999   1.0000
  15.000   0.8445   0.18793   0.17993  -0.0793   0.2902   1.0000
  14.750   0.8590   0.18791   0.17994  -0.0768   0.2987   1.0000
  14.850   0.8468   0.18712   0.17911  -0.0782   0.2971   1.0000
  14.950   0.8425   0.18735   0.17933  -0.0792   0.2928   1.0000
  15.250   0.8649   0.19390   0.18602  -0.0795   0.2832   1.0000
  15.000   0.8445   0.18793   0.17993  -0.0793   0.2902   1.0000
  15.100   0.8558   0.19024   0.18232  -0.0790   0.2860   1.0000
  15.200   0.8710   0.19439   0.18653  -0.0787   0.2838   1.0000
  15.500   0.8584   0.19498   0.18709  -0.0819   0.2752   1.0000
  15.250   0.8649   0.19391   0.18603  -0.0795   0.2832   1.0000
  15.350   0.8564   0.19345   0.18554  -0.0809   0.2807   1.0000
  15.450   0.8564   0.19429   0.18639  -0.0817   0.2770   1.0000
  15.750   0.8796   0.20137   0.19359  -0.0820   0.2685   1.0000
  15.500   0.8584   0.19498   0.18709  -0.0819   0.2752   1.0000
  15.600   0.8664   0.19697   0.18913  -0.0819   0.2719   1.0000
  15.700   0.8849   0.20186   0.19410  -0.0812   0.2690   1.0000
  16.000   0.8731   0.20197   0.19418  -0.0845   0.2597   1.0000
  15.750   0.8796   0.20137   0.19359  -0.0820   0.2685   1.0000
  15.850   0.8710   0.20065   0.19284  -0.0835   0.2663   1.0000
  15.950   0.8706   0.20127   0.19346  -0.0844   0.2619   1.0000
  16.250   0.8934   0.20852   0.20083  -0.0846   0.2537   1.0000
  16.000   0.8731   0.20197   0.19418  -0.0845   0.2597   1.0000
  16.100   0.8850   0.20472   0.19699  -0.0840   0.2559   1.0000
  16.200   0.8985   0.20913   0.20146  -0.0838   0.2542   1.0000
  16.500   0.8862   0.20894   0.20123  -0.0876   0.2467   1.0000
  16.250   0.8934   0.20852   0.20083  -0.0846   0.2537   1.0000
  16.350   0.8856   0.20776   0.20004  -0.0863   0.2517   1.0000
  16.450   0.8848   0.20835   0.20063  -0.0873   0.2484   1.0000
  16.750   0.9120   0.21676   0.20918  -0.0870   0.2393   1.0000
  16.500   0.8862   0.20894   0.20123  -0.0876   0.2467   1.0000
  16.600   0.8922   0.21064   0.20297  -0.0878   0.2433   1.0000
  16.700   0.9132   0.21638   0.20884  -0.0864   0.2398   1.0000
  17.000   0.9005   0.21586   0.20823  -0.0906   0.2329   1.0000
  16.750   0.9120   0.21676   0.20918  -0.0870   0.2393   1.0000
  16.850   0.9031   0.21547   0.20784  -0.0889   0.2380   1.0000
  16.950   0.8996   0.21539   0.20776  -0.0903   0.2347   1.0000
  17.250   0.9237   0.22283   0.21536  -0.0902   0.2256   1.0000
  17.000   0.9005   0.21586   0.20823  -0.0906   0.2329   1.0000
  17.100   0.9058   0.21741   0.20984  -0.0909   0.2292   1.0000
  17.200   0.9153   0.22013   0.21261  -0.0907   0.2266   1.0000
  17.500   0.9171   0.22349   0.21597  -0.0936   0.2217   1.0000
  17.250   0.9237   0.22283   0.21536  -0.0902   0.2256   1.0000
  17.350   0.9260   0.22476   0.21728  -0.0910   0.2245   1.0000
  17.450   0.9188   0.22359   0.21608  -0.0928   0.2231   1.0000
  17.750   0.9270   0.22690   0.21944  -0.0947   0.2132   1.0000
  17.500   0.9171   0.22348   0.21596  -0.0936   0.2217   1.0000
  17.600   0.9178   0.22423   0.21671  -0.0946   0.2185   1.0000
  17.700   0.9227   0.22571   0.21823  -0.0949   0.2148   1.0000
  18.000   0.9362   0.23159   0.22416  -0.0962   0.2090   1.0000
  17.750   0.9270   0.22690   0.21944  -0.0947   0.2132   1.0000
  17.850   0.9466   0.23367   0.22630  -0.0933   0.2104   1.0000
  17.950   0.9393   0.23216   0.22475  -0.0952   0.2097   1.0000
  18.250   0.9373   0.23312   0.22570  -0.0989   0.2022   1.0000
  18.000   0.9362   0.23158   0.22416  -0.0962   0.2090   1.0000
  18.100   0.9337   0.23146   0.22402  -0.0978   0.2064   1.0000
  18.200   0.9355   0.23245   0.22502  -0.0986   0.2035   1.0000
  18.500   0.9644   0.24299   0.23571  -0.0977   0.1959   1.0000
  18.250   0.9373   0.23311   0.22569  -0.0989   0.2022   1.0000
  18.350   0.9428   0.23486   0.22748  -0.0991   0.1996   1.0000
  18.450   0.9541   0.23860   0.23128  -0.0985   0.1970   1.0000
  18.750   0.9528   0.24043   0.23308  -0.1024   0.1922   1.0000
  18.500   0.9644   0.24300   0.23571  -0.0977   0.1959   1.0000
  18.600   0.9579   0.24136   0.23404  -0.0997   0.1953   1.0000
  18.700   0.9533   0.24037   0.23302  -0.1017   0.1936   1.0000
  19.000   0.9630   0.24399   0.23670  -0.1036   0.1847   1.0000
  18.750   0.9528   0.24043   0.23308  -0.1024   0.1922   1.0000
  18.850   0.9548   0.24133   0.23399  -0.1032   0.1889   1.0000
  18.950   0.9596   0.24289   0.23558  -0.1036   0.1859   1.0000
  19.250   0.9790   0.25127   0.24406  -0.1041   0.1813   1.0000
  19.000   0.9630   0.24398   0.23669  -0.1036   0.1847   1.0000
  19.100   0.9729   0.24762   0.24040  -0.1031   0.1827   1.0000
  19.200   0.9821   0.25225   0.24506  -0.1030   0.1816   1.0000
  19.500   0.9742   0.25035   0.24311  -0.1081   0.1763   1.0000
  19.250   0.9790   0.25129   0.24408  -0.1041   0.1813   1.0000
  19.350   0.9750   0.25018   0.24295  -0.1060   0.1803   1.0000
  19.450   0.9735   0.25000   0.24275  -0.1076   0.1779   1.0000
  19.750   0.9878   0.25501   0.24784  -0.1087   0.1695   1.0000
  19.500   0.9742   0.25036   0.24312  -0.1081   0.1763   1.0000
  19.600   0.9775   0.25157   0.24435  -0.1088   0.1736   1.0000
  19.700   0.9834   0.25347   0.24628  -0.1089   0.1707   1.0000
  20.000   0.9971   0.26019   0.25305  -0.1103   0.1668   1.0000
  19.750   0.9878   0.25501   0.24785  -0.1087   0.1695   1.0000
  19.850   1.0035   0.26254   0.25544  -0.1073   0.1676   1.0000
  19.950   0.9990   0.26083   0.25370  -0.1093   0.1671   1.0000
   0.000   0.1463   0.02795   0.01863  -0.0528   0.9112   1.0000
   0.250   0.1851   0.02873   0.01921  -0.0555   0.8966   1.0000
   0.150   0.1609   0.02835   0.01893  -0.0530   0.9016   1.0000
   0.050   0.1474   0.02804   0.01870  -0.0523   0.9078   1.0000
  -0.250   0.1041   0.02710   0.01803  -0.0494   0.9252   1.0000
   0.000   0.1463   0.02795   0.01863  -0.0528   0.9112   1.0000
  -0.100   0.1236   0.02753   0.01833  -0.0505   0.9161   1.0000
  -0.200   0.1077   0.02721   0.01811  -0.0493   0.9220   1.0000
  -0.500   0.0613   0.02623   0.01747  -0.0457   0.9390   1.0000
  -0.250   0.1041   0.02710   0.01803  -0.0494   0.9252   1.0000
  -0.350   0.0848   0.02671   0.01777  -0.0476   0.9304   1.0000
  -0.450   0.0672   0.02636   0.01754  -0.0460   0.9358   1.0000
  -0.750   0.0182   0.02534   0.01692  -0.0419   0.9525   1.0000
  -0.500   0.0613   0.02623   0.01747  -0.0457   0.9390   1.0000
  -0.600   0.0454   0.02588   0.01724  -0.0444   0.9443   1.0000
  -0.700   0.0255   0.02549   0.01700  -0.0424   0.9497   1.0000
  -1.000  -0.0257   0.02445   0.01644  -0.0377   0.9658   1.0000
  -0.750   0.0182   0.02534   0.01692  -0.0419   0.9525   1.0000
  -0.850   0.0038   0.02505   0.01676  -0.0408   0.9580   1.0000
  -0.950  -0.0171   0.02461   0.01651  -0.0385   0.9630   1.0000
  -1.250  -0.0713   0.02354   0.01604  -0.0331   0.9788   1.0000
  -1.000  -0.0257   0.02445   0.01644  -0.0377   0.9658   1.0000
  -1.100  -0.0402   0.02418   0.01634  -0.0366   0.9713   1.0000
  -1.200  -0.0619   0.02372   0.01611  -0.0341   0.9761   1.0000
  -1.500  -0.1203   0.02262   0.01580  -0.0277   0.9914   1.0000
  -1.250  -0.0713   0.02354   0.01604  -0.0331   0.9788   1.0000
  -1.350  -0.0884   0.02324   0.01596  -0.0314   0.9841   1.0000
  -1.450  -0.1104   0.02279   0.01581  -0.0288   0.9889   1.0000
  -1.750  -0.1797   0.02287   0.01605  -0.0222   1.0000   0.6774
  -1.500  -0.1203   0.02262   0.01580  -0.0277   0.9914   1.0000
  -1.600  -0.1420   0.02225   0.01582  -0.0249   0.9964   1.0000
  -1.700  -0.1799   0.02267   0.01612  -0.0205   1.0000   0.7315
  -2.000  -0.1876   0.02419   0.01591  -0.0274   1.0000   0.4339
  -1.750  -0.1797   0.02287   0.01605  -0.0222   1.0000   0.6774
  -1.850  -0.1811   0.02331   0.01595  -0.0249   1.0000   0.5826
  -1.950  -0.1850   0.02384   0.01590  -0.0267   1.0000   0.4868
  -2.250  -0.2101   0.02629   0.01666  -0.0286   1.0000   0.2271
  -2.000  -0.1876   0.02419   0.01591  -0.0274   1.0000   0.4339
  -2.100  -0.1953   0.02512   0.01609  -0.0282   1.0000   0.3218
  -2.200  -0.2050   0.02598   0.01646  -0.0285   1.0000   0.2478
  -2.500  -0.2319   0.02749   0.01762  -0.0295   1.0000   0.1731
  -2.250  -0.2101   0.02629   0.01666  -0.0286   1.0000   0.2272
  -2.350  -0.2188   0.02680   0.01699  -0.0289   1.0000   0.2005
  -2.450  -0.2275   0.02727   0.01740  -0.0293   1.0000   0.1813
  -2.750  -0.2541   0.02864   0.01877  -0.0303   1.0000   0.1492
  -2.500  -0.2319   0.02749   0.01762  -0.0295   1.0000   0.1730
  -2.600  -0.2411   0.02794   0.01806  -0.0298   1.0000   0.1612
  -2.700  -0.2491   0.02842   0.01841  -0.0301   1.0000   0.1530
  -3.000  -0.2756   0.02986   0.02011  -0.0311   1.0000   0.1330
  -2.750  -0.2541   0.02864   0.01877  -0.0303   1.0000   0.1492
  -2.850  -0.2622   0.02907   0.01916  -0.0306   1.0000   0.1414
  -2.950  -0.2710   0.02961   0.01976  -0.0309   1.0000   0.1361
  -3.250  -0.2968   0.03138   0.02164  -0.0318   1.0000   0.1235
  -3.000  -0.2756   0.02986   0.02011  -0.0311   1.0000   0.1330
  -3.100  -0.2842   0.03036   0.02065  -0.0314   1.0000   0.1289
  -3.200  -0.2923   0.03101   0.02122  -0.0317   1.0000   0.1250
  -3.500  -0.3195   0.03290   0.02368  -0.0325   1.0000   0.1166
  -3.250  -0.2968   0.03138   0.02164  -0.0318   1.0000   0.1235
  -3.350  -0.3061   0.03196   0.02248  -0.0321   1.0000   0.1210
  -3.450  -0.3152   0.03260   0.02332  -0.0324   1.0000   0.1177
  -3.750  -0.3410   0.03476   0.02584  -0.0331   1.0000   0.1132
  -3.500  -0.3195   0.03290   0.02368  -0.0325   1.0000   0.1166
  -3.600  -0.3280   0.03357   0.02445  -0.0328   1.0000   0.1145
  -3.700  -0.3367   0.03436   0.02537  -0.0330   1.0000   0.1133
  -4.000  -0.3625   0.03712   0.02860  -0.0336   1.0000   0.1120
  -3.750  -0.3410   0.03476   0.02584  -0.0331   1.0000   0.1132
  -3.850  -0.3499   0.03570   0.02694  -0.0333   1.0000   0.1127
  -3.950  -0.3584   0.03662   0.02803  -0.0335   1.0000   0.1122
  -4.250  -0.3808   0.03986   0.03146  -0.0341   1.0000   0.1098
  -4.000  -0.3625   0.03712   0.02860  -0.0336   1.0000   0.1120
  -4.100  -0.3701   0.03807   0.02961  -0.0338   1.0000   0.1111
  -4.200  -0.3775   0.03911   0.03074  -0.0340   1.0000   0.1105
  -4.500  -0.3985   0.04266   0.03466  -0.0346   1.0000   0.1097
  -4.250  -0.3808   0.03986   0.03146  -0.0341   1.0000   0.1098
  -4.350  -0.3893   0.04079   0.03285  -0.0342   1.0000   0.1114
  -4.450  -0.3950   0.04203   0.03393  -0.0345   1.0000   0.1098
  -4.750  -0.4160   0.04735   0.04054  -0.0335   1.0000   0.1178
  -4.500  -0.3985   0.04266   0.03466  -0.0346   1.0000   0.1097
   0.000   0.1463   0.02795   0.01863  -0.0528   0.9112   1.0000
   0.250   0.1851   0.02873   0.01921  -0.0555   0.8966   1.0000
   0.500   0.2206   0.02949   0.01980  -0.0575   0.8818   1.0000
   0.750   0.2556   0.03024   0.02040  -0.0593   0.8668   1.0000
   1.000   0.2905   0.03097   0.02100  -0.0610   0.8515   1.0000
   1.250   0.3244   0.03168   0.02161  -0.0624   0.8363   1.0000
   1.500   0.3588   0.03235   0.02221  -0.0637   0.8208   1.0000
   1.750   0.3932   0.03299   0.02278  -0.0649   0.8052   1.0000
   2.000   0.4273   0.03359   0.02333  -0.0659   0.7895   1.0000
   2.250   0.4608   0.03414   0.02384  -0.0666   0.7738   1.0000
   2.500   0.4922   0.03465   0.02433  -0.0669   0.7581   1.0000
   2.750   0.5232   0.03509   0.02476  -0.0668   0.7423   1.0000
   3.000   0.5539   0.03546   0.02514  -0.0666   0.7265   1.0000
   3.250   0.5838   0.03578   0.02546  -0.0661   0.7108   1.0000
   3.500   0.6135   0.03602   0.02571  -0.0654   0.6951   1.0000
   3.750   0.6429   0.03619   0.02590  -0.0646   0.6794   1.0000
   4.000   0.6721   0.03626   0.02602  -0.0635   0.6638   1.0000
   4.250   0.7012   0.03627   0.02606  -0.0624   0.6481   1.0000
   4.500   0.7173   0.03713   0.02696  -0.0607   0.6295   1.0000
   4.750   0.7422   0.03738   0.02728  -0.0593   0.6128   1.0000
   5.000   0.7687   0.03747   0.02741  -0.0579   0.5964   1.0000
   5.250   0.7959   0.03746   0.02745  -0.0564   0.5800   1.0000
   5.500   0.8237   0.03738   0.02742  -0.0550   0.5636   1.0000
   5.750   0.8526   0.03717   0.02729  -0.0535   0.5472   1.0000
   6.000   0.8819   0.03695   0.02712  -0.0521   0.5309   1.0000
   6.250   0.9123   0.03661   0.02684  -0.0506   0.5144   1.0000
   6.500   0.9419   0.03643   0.02668  -0.0493   0.4979   1.0000
   6.750   0.9726   0.03616   0.02641  -0.0480   0.4811   1.0000
   7.000   0.9962   0.03667   0.02698  -0.0467   0.4640   1.0000
   7.250   1.0141   0.03770   0.02811  -0.0452   0.4464   1.0000
   7.500   1.0344   0.03859   0.02908  -0.0438   0.4296   1.0000
   7.750   1.0554   0.03946   0.03002  -0.0425   0.4132   1.0000
   8.000   1.0759   0.04044   0.03110  -0.0412   0.3975   1.0000
   8.250   1.0953   0.04158   0.03233  -0.0399   0.3823   1.0000
   8.500   1.1139   0.04280   0.03363  -0.0386   0.3676   1.0000
   8.750   1.1316   0.04421   0.03516  -0.0373   0.3536   1.0000
   9.000   1.1502   0.04554   0.03657  -0.0360   0.3400   1.0000
   9.250   1.1711   0.04675   0.03784  -0.0349   0.3267   1.0000
   9.500   1.1949   0.04781   0.03893  -0.0339   0.3133   1.0000
   9.750   1.1722   0.05248   0.04400  -0.0313   0.3051   1.0000
  10.000   1.1805   0.05480   0.04647  -0.0299   0.2947   1.0000
  10.250   1.2065   0.05574   0.04744  -0.0289   0.2824   1.0000
  10.500   1.1518   0.06317   0.05514  -0.0264   0.2811   1.0000
  10.750   1.0696   0.07482   0.06675  -0.0273   0.2836   1.0000
  11.000   1.1214   0.07205   0.06416  -0.0243   0.2689   1.0000
  12.250   0.7789   0.14995   0.14134  -0.0687   0.3871   1.0000
  12.500   0.7837   0.15306   0.14451  -0.0693   0.3771   1.0000
  12.750   0.7854   0.15667   0.14816  -0.0704   0.3701   1.0000
  13.000   0.8107   0.16189   0.15350  -0.0705   0.3586   1.0000
  13.250   0.7999   0.16334   0.15495  -0.0717   0.3483   1.0000
  13.500   0.8147   0.16836   0.16007  -0.0725   0.3427   1.0000
  13.750   0.8147   0.17070   0.16245  -0.0736   0.3323   1.0000
  14.000   0.8178   0.17416   0.16594  -0.0748   0.3242   1.0000
  14.000   0.8178   0.17416   0.16594  -0.0748   0.3242   1.0000
  14.100   0.8211   0.17529   0.16710  -0.0751   0.3190   1.0000
  14.200   0.8369   0.17816   0.17006  -0.0747   0.3150   1.0000
  14.500   0.8301   0.18099   0.17288  -0.0770   0.3073   1.0000
  14.750   0.8590   0.18791   0.17994  -0.0768   0.2987   1.0000
  15.000   0.8445   0.18793   0.17993  -0.0793   0.2902   1.0000
  15.250   0.8649   0.19391   0.18602  -0.0795   0.2832   1.0000
  15.500   0.8584   0.19498   0.18709  -0.0819   0.2752   1.0000
  15.750   0.8796   0.20137   0.19359  -0.0820   0.2685   1.0000
  16.000   0.8731   0.20196   0.19417  -0.0845   0.2597   1.0000
  16.250   0.8934   0.20852   0.20083  -0.0846   0.2537   1.0000
  16.500   0.8862   0.20894   0.20123  -0.0876   0.2467   1.0000
  16.750   0.9120   0.21677   0.20919  -0.0870   0.2393   1.0000
  17.000   0.9005   0.21586   0.20823  -0.0906   0.2329   1.0000
  17.250   0.9237   0.22284   0.21536  -0.0902   0.2256   1.0000
  17.500   0.9171   0.22349   0.21597  -0.0936   0.2217   1.0000
  17.750   0.9270   0.22690   0.21944  -0.0947   0.2132   1.0000
  18.000   0.9362   0.23158   0.22416  -0.0962   0.2090   1.0000
  18.250   0.9373   0.23312   0.22570  -0.0989   0.2022   1.0000
  18.500   0.9644   0.24299   0.23571  -0.0977   0.1959   1.0000
  18.750   0.9528   0.24043   0.23308  -0.1024   0.1922   1.0000
  19.000   0.9630   0.24398   0.23669  -0.1036   0.1847   1.0000
  19.250   0.9790   0.25128   0.24407  -0.1041   0.1813   1.0000
  19.500   0.9742   0.25035   0.24311  -0.1081   0.1763   1.0000
  19.750   0.9878   0.25501   0.24785  -0.1087   0.1695   1.0000
  20.000   0.9971   0.26019   0.25305  -0.1103   0.1668   1.0000
   0.000   0.1463   0.02795   0.01863  -0.0528   0.9112   1.0000
  -0.250   0.1041   0.02710   0.01803  -0.0494   0.9252   1.0000
  -0.500   0.0613   0.02623   0.01747  -0.0457   0.9390   1.0000
  -0.750   0.0182   0.02534   0.01692  -0.0419   0.9525   1.0000
  -1.000  -0.0257   0.02445   0.01644  -0.0377   0.9658   1.0000
  -1.250  -0.0713   0.02354   0.01604  -0.0331   0.9788   1.0000
  -1.500  -0.1203   0.02262   0.01580  -0.0277   0.9914   1.0000
  -1.750  -0.1797   0.02287   0.01605  -0.0222   1.0000   0.6775
  -2.000  -0.1876   0.02419   0.01591  -0.0274   1.0000   0.4339
  -2.250  -0.2101   0.02629   0.01666  -0.0286   1.0000   0.2272
  -2.500  -0.2319   0.02749   0.01762  -0.0295   1.0000   0.1731
  -2.750  -0.2541   0.02864   0.01877  -0.0303   1.0000   0.1492
  -3.000  -0.2756   0.02986   0.02011  -0.0311   1.0000   0.1330
  -3.250  -0.2968   0.03138   0.02164  -0.0318   1.0000   0.1235
  -3.500  -0.3195   0.03290   0.02368  -0.0325   1.0000   0.1166
  -3.750  -0.3410   0.03476   0.02584  -0.0331   1.0000   0.1132
  -4.000  -0.3625   0.03712   0.02860  -0.0336   1.0000   0.1120
  -4.250  -0.3808   0.03986   0.03146  -0.0341   1.0000   0.1098
  -4.500  -0.3985   0.04266   0.03466  -0.0346   1.0000   0.1097
  -4.750  -0.4160   0.04735   0.04054  -0.0335   1.0000   0.1178
  -5.000  -0.4278   0.05092   0.04430  -0.0339   1.0000   0.1225
  -5.250  -0.4383   0.05658   0.05049  -0.0325   1.0000   0.1406
  -6.500  -0.3339   0.08166   0.07604  -0.0114   1.0000   0.3365
  -6.750  -0.3424   0.08483   0.07912  -0.0133   1.0000   0.3229
  -7.000  -0.3587   0.08869   0.08293  -0.0149   1.0000   0.3084
  -7.250  -0.3311   0.08870   0.08270  -0.0154   1.0000   0.2966
  -7.500  -0.3284   0.09123   0.08511  -0.0155   1.0000   0.2865
  -7.750  -0.3536   0.09633   0.09022  -0.0167   1.0000   0.2767
  -8.000  -0.3403   0.09735   0.09108  -0.0158   1.0000   0.2651
  -8.250  -0.3409   0.10026   0.09389  -0.0152   1.0000   0.2571
  -8.500  -0.3666   0.10545   0.09909  -0.0166   1.0000   0.2465
  -8.750  -0.3478   0.10610   0.09957  -0.0142   1.0000   0.2387
  -9.000  -0.3768   0.11218   0.10567  -0.0158   1.0000   0.2301
  -9.250  -0.3575   0.11230   0.10565  -0.0131   1.0000   0.2224
  -9.500  -0.3819   0.11806   0.11141  -0.0142   1.0000   0.2144
  -9.750  -0.3676   0.11863   0.11185  -0.0116   1.0000   0.2072
 -10.000  -0.3932   0.12472   0.11795  -0.0129   1.0000   0.1991
 -10.250  -0.3783   0.12501   0.11814  -0.0101   1.0000   0.1928
 -10.500  -0.4095   0.13210   0.12525  -0.0119   1.0000   0.1841
 -10.750  -0.3916   0.13180   0.12483  -0.0085   1.0000   0.1804
 -11.000  -0.4004   0.13511   0.12811  -0.0079   1.0000   0.1722
 -11.250  -0.4160   0.14062   0.13359  -0.0079   1.0000   0.1683
 -11.500  -0.4069   0.14123   0.13412  -0.0052   1.0000   0.1634
 -11.750  -0.4173   0.14485   0.13772  -0.0046   1.0000   0.1573
 -12.000  -0.4400   0.15187   0.14473  -0.0051   1.0000   0.1536
 -12.250  -0.4276   0.15147   0.14425  -0.0019   1.0000   0.1507
 -12.500  -0.4320   0.15412   0.14686  -0.0004   1.0000   0.1451
 -12.750  -0.4516   0.15980   0.15257  -0.0008   1.0000   0.1402
 -13.000  -0.4594   0.16412   0.15684   0.0005   1.0000   0.1383
 -13.250  -0.4531   0.16424   0.15690   0.0034   1.0000   0.1353
 -13.500  -0.4588   0.16699   0.15961   0.0049   1.0000   0.1306
 -13.750  -0.4725   0.17143   0.16405   0.0053   1.0000   0.1265
 -14.000  -0.4937   0.17936   0.17197   0.0052   1.0000   0.1240
 -14.250  -0.4856   0.17822   0.17076   0.0085   1.0000   0.1225
 -14.500  -0.4881   0.17990   0.17240   0.0107   1.0000   0.1188
 -14.750  -0.4966   0.18299   0.17547   0.0121   1.0000   0.1150
 -15.000  -0.5111   0.18794   0.18044   0.0125   1.0000   0.1115
 -15.250  -0.5308   0.19627   0.18876   0.0126   1.0000   0.1095
 -15.500  -0.5253   0.19465   0.18708   0.0159   1.0000   0.1084
 -15.750  -0.5283   0.19582   0.18821   0.0185   1.0000   0.1056
 -16.000  -0.5362   0.19855   0.19093   0.0202   1.0000   0.1020
 -16.250  -0.5472   0.20234   0.19471   0.0213   1.0000   0.0985
 -16.500  -0.5750   0.21473   0.20712   0.0201   1.0000   0.0955
 -16.750  -0.5723   0.21313   0.20547   0.0232   1.0000   0.0951
 -17.000  -0.5726   0.21240   0.20469   0.0264   1.0000   0.0937
 -17.250  -0.5787   0.21417   0.20643   0.0288   1.0000   0.0912
 -17.500  -0.5871   0.21696   0.20923   0.0307   1.0000   0.0884
 -17.750  -0.5966   0.22017   0.21243   0.0322   1.0000   0.0861
 -18.000  -0.6082   0.22443   0.21669   0.0333   1.0000   0.0839
 -18.250  -0.6349   0.23885   0.23114   0.0321   1.0000   0.0819
 -18.500  -0.6339   0.23658   0.22882   0.0354   1.0000   0.0816
 -18.750  -0.6357   0.23539   0.22759   0.0385   1.0000   0.0810
 -19.000  -0.6411   0.23610   0.22828   0.0414   1.0000   0.0797
 -19.250  -0.6488   0.23822   0.23038   0.0437   1.0000   0.0778
 -19.500  -0.6574   0.24092   0.23307   0.0457   1.0000   0.0757
 -19.750  -0.6666   0.24387   0.23603   0.0476   1.0000   0.0740
 -20.000  -0.6763   0.24715   0.23931   0.0493   1.0000   0.0722
