  
       XFOIL         Version 6.99
  
 Calculated polar for: E61  (5.64%)                                    
  
 1 1 Reynolds number fixed          Mach number fixed         
  
 xtrf =   1.000 (top)        1.000 (bottom)  
 Mach =   0.000     Re =     0.050 e 6     Ncrit =   9.000
  
   alpha    CL        CD       CDp       CM     Top_Xtr  Bot_Xtr
  ------ -------- --------- --------- -------- -------- --------
   0.000   0.3117   0.04213   0.03359  -0.1305   1.0000   0.1482
   0.250   0.3635   0.04063   0.03137  -0.1356   1.0000   0.1355
   0.500   0.4051   0.03979   0.03001  -0.1387   1.0000   0.1328
   0.750   0.4410   0.03942   0.02919  -0.1407   1.0000   0.1357
   1.000   0.4706   0.03928   0.02868  -0.1413   1.0000   0.1440
   1.250   0.4991   0.03937   0.02863  -0.1419   1.0000   0.1699
   1.500   0.5441   0.03706   0.02809  -0.1444   1.0000   1.0000
   1.750   0.5642   0.03820   0.02872  -0.1441   1.0000   1.0000
   2.000   0.5832   0.03942   0.02964  -0.1440   1.0000   1.0000
   2.250   0.6016   0.04069   0.03070  -0.1439   1.0000   1.0000
   2.500   0.6194   0.04204   0.03187  -0.1438   1.0000   1.0000
   2.750   0.6366   0.04346   0.03317  -0.1438   1.0000   1.0000
   3.000   0.6583   0.04509   0.03470  -0.1448   0.9966   1.0000
   3.250   0.7081   0.04706   0.03656  -0.1507   0.9752   1.0000
   3.500   0.7508   0.04860   0.03806  -0.1549   0.9567   1.0000
   3.750   0.7887   0.04986   0.03931  -0.1581   0.9387   1.0000
   4.000   0.8334   0.05104   0.04048  -0.1620   0.9222   1.0000
   4.250   0.8622   0.05207   0.04159  -0.1634   0.9028   1.0000
   4.500   0.9026   0.05295   0.04262  -0.1663   0.8852   1.0000
   4.750   0.9412   0.05373   0.04350  -0.1686   0.8670   1.0000
   5.000   0.9749   0.05445   0.04437  -0.1701   0.8472   1.0000
   5.250   1.0225   0.05459   0.04471  -0.1729   0.8294   1.0000
   5.500   1.0516   0.05514   0.04555  -0.1732   0.8074   1.0000
   5.750   1.1029   0.05450   0.04520  -0.1757   0.7886   1.0000
   6.000   1.1351   0.05448   0.04545  -0.1755   0.7653   1.0000
   6.250   1.1932   0.05247   0.04386  -0.1773   0.7452   1.0000
   6.500   1.2436   0.05022   0.04217  -0.1775   0.7212   1.0000
   6.750   1.3051   0.04609   0.03861  -0.1772   0.6962   1.0000
   7.000   1.4081   0.03742   0.03093  -0.1789   0.6595   1.0000
   7.250   1.4686   0.03255   0.02651  -0.1767   0.5905   1.0000
   7.500   1.4875   0.03162   0.02530  -0.1709   0.4979   1.0000
   7.750   1.4837   0.03310   0.02614  -0.1637   0.4053   1.0000
   8.000   1.4721   0.03566   0.02797  -0.1566   0.3220   1.0000
   8.250   1.4585   0.03905   0.03057  -0.1500   0.2432   1.0000
   8.500   1.4421   0.04266   0.03346  -0.1441   0.1784   1.0000
   8.750   1.4344   0.04668   0.03694  -0.1395   0.1211   1.0000
   9.000   1.4854   0.05172   0.04155  -0.1407   0.0791   1.0000
   9.250   1.5375   0.05664   0.04671  -0.1436   0.0648   1.0000
   9.500   1.5814   0.06332   0.05386  -0.1453   0.0613   1.0000
   9.750   1.5947   0.06836   0.05952  -0.1428   0.0609   1.0000
  10.000   1.5994   0.07345   0.06517  -0.1397   0.0610   1.0000
  10.250   1.5985   0.07856   0.07076  -0.1364   0.0613   1.0000
  10.500   1.5939   0.08385   0.07645  -0.1330   0.0618   1.0000
  10.750   1.5926   0.08975   0.08270  -0.1306   0.0625   1.0000
  11.000   1.5684   0.09240   0.08578  -0.1249   0.0632   1.0000
  11.250   1.5348   0.09568   0.08952  -0.1199   0.0640   1.0000
  11.500   1.5012   0.10035   0.09460  -0.1169   0.0648   1.0000
  11.750   1.4694   0.10594   0.10054  -0.1157   0.0658   1.0000
  12.000   1.4394   0.11222   0.10710  -0.1162   0.0666   1.0000
  12.250   1.4097   0.11939   0.11449  -0.1185   0.0674   1.0000
  12.500   1.3812   0.12734   0.12263  -0.1225   0.0686   1.0000
  12.750   1.3547   0.13636   0.13176  -0.1282   0.0699   1.0000
  13.000   1.3340   0.14593   0.14138  -0.1346   0.0715   1.0000
  13.250   1.3233   0.15458   0.15004  -0.1398   0.0730   1.0000
  13.500   1.3282   0.16048   0.15594  -0.1410   0.0745   1.0000
  13.750   1.2886   0.18094   0.17618  -0.1594   0.0838   1.0000
  14.000   1.2980   0.18620   0.18147  -0.1599   0.0867   1.0000
  14.250   1.2648   0.21608   0.21116  -0.1859   0.2052   1.0000
  14.500   1.2606   0.21955   0.21460  -0.1896   0.1999   1.0000
  14.750   1.2838   0.22690   0.22201  -0.1882   0.1928   1.0000
  15.000   1.2725   0.22891   0.22394  -0.1936   0.1898   1.0000
  15.000   1.2725   0.22890   0.22394  -0.1936   0.1898   1.0000
  15.100   1.2733   0.23009   0.22512  -0.1946   0.1852   1.0000
  15.200   1.2810   0.23243   0.22749  -0.1942   0.1821   1.0000
  15.500   1.2842   0.23745   0.23246  -0.1976   0.1766   1.0000
  15.750   1.2907   0.24127   0.23630  -0.1995   0.1696   1.0000
  16.000   1.3141   0.25043   0.24551  -0.1981   0.1660   1.0000
  16.250   1.3010   0.24970   0.24469  -0.2045   0.1626   1.0000
  16.500   1.3079   0.25352   0.24851  -0.2066   0.1567   1.0000
  16.750   1.3321   0.26347   0.25853  -0.2048   0.1526   1.0000
  17.000   1.3209   0.26194   0.25692  -0.2113   0.1498   1.0000
  17.250   1.3266   0.26522   0.26020  -0.2138   0.1441   1.0000
  17.500   1.3554   0.27762   0.27277  -0.2106   0.1395   1.0000
  17.750   1.3438   0.27455   0.26961  -0.2174   0.1378   1.0000
  18.000   1.3462   0.27655   0.27158  -0.2212   0.1326   1.0000
  18.250   1.3586   0.28174   0.27682  -0.2217   0.1281   1.0000
  18.500   1.3704   0.28860   0.28368  -0.2226   0.1257   1.0000
  18.750   1.3681   0.28808   0.28311  -0.2280   0.1227   1.0000
  19.000   1.3751   0.29126   0.28631  -0.2304   0.1176   1.0000
  19.250   1.3962   0.30247   0.29758  -0.2282   0.1129   1.0000
  19.500   1.3919   0.30004   0.29508  -0.2342   0.1114   1.0000
  19.750   1.3957   0.30170   0.29674  -0.2379   0.1071   1.0000
  20.000   1.4061   0.30617   0.30124  -0.2390   0.1024   1.0000
   0.000   0.3117   0.04213   0.03359  -0.1305   1.0000   0.1482
  -0.250   0.2558   0.04428   0.03633  -0.1238   1.0000   0.1660
  -0.850  -0.0811   0.05659   0.05116  -0.0515   1.0000   0.4072
  -1.250  -0.1104   0.06039   0.05491  -0.0517   1.0000   0.3280
  -1.100  -0.0976   0.05891   0.05344  -0.0523   1.0000   0.3535
  -1.200  -0.0974   0.06014   0.05461  -0.0545   1.0000   0.3480
  -1.350  -0.1188   0.06139   0.05591  -0.0514   1.0000   0.3124
  -1.450  -0.1175   0.06253   0.05700  -0.0540   1.0000   0.3076
  -1.750  -0.1541   0.06560   0.06015  -0.0487   1.0000   0.2559
  -2.000  -0.1673   0.06862   0.06313  -0.0495   1.0000   0.2361
  -2.250  -0.1950   0.07139   0.06595  -0.0454   1.0000   0.2109
  -2.000  -0.1673   0.06862   0.06313  -0.0495   1.0000   0.2361
  -2.100  -0.1770   0.06961   0.06414  -0.0485   1.0000   0.2244
  -2.250  -0.1950   0.07139   0.06595  -0.0454   1.0000   0.2109
  -2.350  -0.1918   0.07295   0.06744  -0.0484   1.0000   0.2094
  -2.450  -0.2152   0.07388   0.06846  -0.0423   1.0000   0.1969
  -2.750  -0.2355   0.07793   0.07249  -0.0408   1.0000   0.1820
  -3.000  -0.2624   0.08099   0.07560  -0.0352   1.0000   0.1686
  -3.250  -0.2903   0.08408   0.07872  -0.0281   1.0000   0.1562
  -3.500  -0.3109   0.08721   0.08186  -0.0226   1.0000   0.1485
  -3.750  -0.3187   0.09023   0.08485  -0.0234   1.0000   0.1415
  -4.000  -0.3325   0.09328   0.08788  -0.0195   1.0000   0.1372
  -4.250  -0.3439   0.09565   0.09023  -0.0163   1.0000   0.1299
  -4.500  -0.3436   0.09973   0.09433  -0.0216   1.0000   0.1261
  -4.250  -0.3439   0.09565   0.09023  -0.0163   1.0000   0.1299
  -4.350  -0.3452   0.09697   0.09160  -0.0174   1.0000   0.1280
  -4.450  -0.3452   0.09851   0.09313  -0.0194   1.0000   0.1268
  -4.750  -0.3547   0.10143   0.09598  -0.0152   1.0000   0.1236
  -5.000  -0.3590   0.10309   0.09759  -0.0125   1.0000   0.1183
  -5.250  -0.3619   0.10609   0.10055  -0.0143   1.0000   0.1137
  -5.500  -0.3644   0.11073   0.10513  -0.0178   1.0000   0.1112
  -5.750  -0.3617   0.11047   0.10477  -0.0136   1.0000   0.1094
  -6.000  -0.3575   0.11147   0.10569  -0.0134   1.0000   0.1065
  -6.250  -0.3546   0.11319   0.10733  -0.0145   1.0000   0.1028
  -6.500  -0.3697   0.12106   0.11521  -0.0189   1.0000   0.0974
  -6.750  -0.3614   0.12081   0.11485  -0.0180   1.0000   0.0970
  -7.000  -0.3482   0.12045   0.11437  -0.0195   1.0000   0.0964
  -7.250  -0.3357   0.12019   0.11399  -0.0211   1.0000   0.0949
  -7.500  -0.3295   0.12113   0.11484  -0.0224   1.0000   0.0926
  -7.750  -0.3269   0.12279   0.11642  -0.0235   1.0000   0.0899
  -8.000  -0.3275   0.12512   0.11870  -0.0248   1.0000   0.0873
  -8.250  -0.3532   0.13535   0.12896  -0.0264   1.0000   0.0836
  -8.500  -0.3417   0.13463   0.12812  -0.0273   1.0000   0.0833
  -8.750  -0.3334   0.13433   0.12772  -0.0278   1.0000   0.0829
  -9.000  -0.3275   0.13438   0.12767  -0.0281   1.0000   0.0819
  -9.250  -0.3249   0.13537   0.12858  -0.0284   1.0000   0.0801
  -9.500  -0.3251   0.13719   0.13033  -0.0288   1.0000   0.0777
  -9.750  -0.3268   0.13945   0.13253  -0.0293   1.0000   0.0754
 -10.000  -0.3301   0.14216   0.13520  -0.0299   1.0000   0.0732
 -10.250  -0.3551   0.15433   0.14748  -0.0320   1.0000   0.0698
 -10.500  -0.3495   0.15395   0.14701  -0.0318   1.0000   0.0697
 -10.750  -0.3451   0.15366   0.14663  -0.0315   1.0000   0.0693
 -11.000  -0.3426   0.15380   0.14669  -0.0311   1.0000   0.0688
 -11.250  -0.3423   0.15462   0.14744  -0.0307   1.0000   0.0676
 -11.500  -0.3443   0.15640   0.14918  -0.0304   1.0000   0.0659
 -11.750  -0.3474   0.15862   0.15135  -0.0303   1.0000   0.0641
 -12.000  -0.3510   0.16115   0.15384  -0.0302   1.0000   0.0621
 -12.250  -0.3552   0.16380   0.15645  -0.0302   1.0000   0.0605
 -12.500  -0.3604   0.16693   0.15955  -0.0303   1.0000   0.0588
 -12.750  -0.3677   0.17137   0.16398  -0.0307   1.0000   0.0573
 -13.000  -0.3856   0.18259   0.17519  -0.0318   1.0000   0.0559
 -13.250  -0.3840   0.18232   0.17486  -0.0310   1.0000   0.0558
 -13.500  -0.3834   0.18217   0.17465  -0.0302   1.0000   0.0555
 -13.750  -0.3841   0.18235   0.17477  -0.0292   1.0000   0.0551
 -14.000  -0.3868   0.18337   0.17575  -0.0284   1.0000   0.0545
 -14.250  -0.3906   0.18495   0.17729  -0.0276   1.0000   0.0533
 -14.500  -0.3952   0.18710   0.17941  -0.0269   1.0000   0.0518
 -14.750  -0.4002   0.18953   0.18181  -0.0263   1.0000   0.0505
 -15.000  -0.4055   0.19207   0.18432  -0.0257   1.0000   0.0490
 -15.250  -0.4110   0.19476   0.18699  -0.0252   1.0000   0.0474
 -15.500  -0.4168   0.19755   0.18977  -0.0247   1.0000   0.0462
 -15.750  -0.4230   0.20083   0.19302  -0.0243   1.0000   0.0448
 -16.000  -0.4308   0.20566   0.19792  -0.0243   1.0000   0.0435
 -16.500  -0.4510   0.22012   0.21233  -0.0241   1.0000   0.0423
 -16.750  -0.4530   0.21996   0.21213  -0.0229   1.0000   0.0422
 -17.000  -0.4563   0.22034   0.21247  -0.0217   1.0000   0.0420
 -17.250  -0.4598   0.22059   0.21269  -0.0204   1.0000   0.0418
 -17.500  -0.4645   0.22151   0.21358  -0.0191   1.0000   0.0415
 -17.750  -0.4698   0.22276   0.21480  -0.0178   1.0000   0.0410
 -18.000  -0.4757   0.22453   0.21655  -0.0166   1.0000   0.0403
 -18.250  -0.4819   0.22668   0.21868  -0.0155   1.0000   0.0396
 -18.500  -0.4882   0.22905   0.22103  -0.0144   1.0000   0.0387
 -18.750  -0.4947   0.23152   0.22349  -0.0133   1.0000   0.0379
 -19.000  -0.5012   0.23406   0.22602  -0.0122   1.0000   0.0371
 -19.250  -0.5077   0.23664   0.22858  -0.0111   1.0000   0.0362
 -19.500  -0.5142   0.23920   0.23113  -0.0100   1.0000   0.0354
 -19.750  -0.5209   0.24183   0.23375  -0.0088   1.0000   0.0347
 -19.500  -0.5142   0.23920   0.23113  -0.0100   1.0000   0.0354
 -19.600  -0.5169   0.24029   0.23221  -0.0095   1.0000   0.0350
 -19.700  -0.5195   0.24129   0.23321  -0.0091   1.0000   0.0349
 -20.000  -0.5275   0.24448   0.23638  -0.0077   1.0000   0.0339
