  
       XFOIL         Version 6.99
  
 Calculated polar for: St. CYR 171 (Royer)                             
  
 1 1 Reynolds number fixed          Mach number fixed         
  
 xtrf =   1.000 (top)        1.000 (bottom)  
 Mach =   0.000     Re =     0.050 e 6     Ncrit =   9.000
  
   alpha    CL        CD       CDp       CM     Top_Xtr  Bot_Xtr
  ------ -------- --------- --------- -------- -------- --------
   0.000  -0.1901   0.01924   0.01079   0.0299   1.0000   0.8433
   0.250  -0.1431   0.01960   0.01130   0.0255   1.0000   0.8889
   0.500  -0.0900   0.02003   0.01181   0.0195   1.0000   0.9352
   0.750  -0.0399   0.02051   0.01232   0.0134   1.0000   0.9861
   1.000  -0.0300   0.02090   0.01260   0.0140   1.0000   1.0000
   1.250  -0.0243   0.02129   0.01292   0.0156   1.0000   1.0000
   1.500   0.0565   0.02230   0.01400   0.0040   0.9734   1.0000
   1.750   0.1485   0.02275   0.01461  -0.0083   0.9391   1.0000
   2.000   0.2451   0.02244   0.01456  -0.0198   0.9027   1.0000
   2.250   0.3483   0.02115   0.01361  -0.0304   0.8577   1.0000
   2.500   0.4170   0.01982   0.01243  -0.0337   0.7964   1.0000
   2.750   0.4530   0.01925   0.01166  -0.0312   0.7125   1.0000
   3.000   0.4683   0.01945   0.01139  -0.0263   0.6113   1.0000
   3.250   0.4872   0.02007   0.01135  -0.0230   0.5325   1.0000
   3.500   0.5086   0.02094   0.01187  -0.0213   0.4806   1.0000
   3.750   0.5306   0.02175   0.01248  -0.0200   0.4459   1.0000
   4.000   0.5538   0.02253   0.01304  -0.0188   0.4210   1.0000
   4.250   0.5772   0.02340   0.01386  -0.0178   0.4016   1.0000
   4.500   0.6011   0.02431   0.01468  -0.0169   0.3857   1.0000
   4.750   0.6239   0.02527   0.01568  -0.0158   0.3709   1.0000
   5.000   0.6459   0.02638   0.01690  -0.0148   0.3582   1.0000
   5.250   0.6696   0.02763   0.01813  -0.0139   0.3487   1.0000
   5.500   0.6904   0.02893   0.01964  -0.0127   0.3383   1.0000
   5.750   0.7113   0.03036   0.02117  -0.0116   0.3286   1.0000
   6.000   0.7311   0.03189   0.02288  -0.0103   0.3196   1.0000
   6.250   0.7485   0.03356   0.02475  -0.0087   0.3090   1.0000
   6.500   0.7665   0.03478   0.02596  -0.0070   0.2922   1.0000
   6.750   0.7822   0.03574   0.02696  -0.0049   0.2714   1.0000
   7.000   0.7979   0.03685   0.02808  -0.0029   0.2515   1.0000
   7.250   0.8124   0.03858   0.02994  -0.0009   0.2348   1.0000
   7.500   0.8245   0.04062   0.03212   0.0014   0.2171   1.0000
   7.750   0.8346   0.04288   0.03453   0.0038   0.1996   1.0000
   8.000   0.8482   0.04530   0.03696   0.0057   0.1860   1.0000
   8.250   0.8438   0.04906   0.04124   0.0088   0.1782   1.0000
   8.500   0.8616   0.05145   0.04351   0.0101   0.1697   1.0000
   8.750   0.8463   0.05597   0.04857   0.0130   0.1668   1.0000
   9.000   0.8285   0.06077   0.05372   0.0152   0.1653   1.0000
   9.250   0.8043   0.06604   0.05922   0.0167   0.1651   1.0000
   9.500   0.7759   0.07170   0.06499   0.0174   0.1665   1.0000
   9.750   0.7480   0.07747   0.07079   0.0173   0.1682   1.0000
  10.000   0.7275   0.08387   0.07718   0.0153   0.1695   1.0000
  10.250   0.7169   0.09037   0.08369   0.0129   0.1710   1.0000
  10.250   0.7169   0.09037   0.08369   0.0129   0.1710   1.0000
  10.750   0.5705   0.12330   0.11630  -0.0188   0.3080   1.0000
  11.000   0.6035   0.12897   0.12204  -0.0175   0.2960   1.0000
  11.250   0.5796   0.12998   0.12297  -0.0191   0.2855   1.0000
  11.500   0.6136   0.13638   0.12946  -0.0179   0.2779   1.0000
  11.750   0.5865   0.13693   0.12990  -0.0201   0.2695   1.0000
  12.000   0.6083   0.14166   0.13469  -0.0196   0.2620   1.0000
  12.250   0.6062   0.14534   0.13834  -0.0208   0.2580   1.0000
  12.500   0.6003   0.14729   0.14026  -0.0220   0.2488   1.0000
  12.750   0.6365   0.15479   0.14784  -0.0206   0.2416   1.0000
  13.000   0.6098   0.15428   0.14724  -0.0234   0.2363   1.0000
  13.250   0.6202   0.15777   0.15075  -0.0237   0.2277   1.0000
  13.500   0.6536   0.16616   0.15922  -0.0227   0.2236   1.0000
  13.750   0.6265   0.16471   0.15766  -0.0259   0.2196   1.0000
  14.000   0.6295   0.16740   0.16036  -0.0271   0.2130   1.0000
  14.250   0.6545   0.17365   0.16668  -0.0264   0.2072   1.0000
  14.500   0.6545   0.17699   0.16998  -0.0280   0.2045   1.0000
  14.750   0.6458   0.17734   0.17029  -0.0303   0.1984   1.0000
  15.000   0.6569   0.18097   0.17395  -0.0308   0.1922   1.0000
  15.250   0.6982   0.19305   0.18612  -0.0292   0.1881   1.0000
  15.500   0.6758   0.18993   0.18291  -0.0326   0.1867   1.0000
  15.750   0.6709   0.19044   0.18340  -0.0351   0.1819   1.0000
  16.000   0.6787   0.19357   0.18653  -0.0362   0.1765   1.0000
  16.250   0.7071   0.20236   0.19542  -0.0349   0.1714   1.0000
  16.500   0.7044   0.20403   0.19704  -0.0373   0.1697   1.0000
  16.750   0.6983   0.20342   0.19640  -0.0403   0.1659   1.0000
  17.000   0.7044   0.20611   0.19909  -0.0418   0.1612   1.0000
  17.250   0.7153   0.20994   0.20294  -0.0425   0.1574   1.0000
  17.250   0.7153   0.20994   0.20294  -0.0425   0.1574   1.0000
  17.350   0.7223   0.21236   0.20539  -0.0424   0.1560   1.0000
  17.450   0.7330   0.21639   0.20944  -0.0420   0.1548   1.0000
  17.750   0.7386   0.22060   0.21362  -0.0442   0.1530   1.0000
  18.000   0.7334   0.21918   0.21216  -0.0475   0.1495   1.0000
  18.250   0.7397   0.22166   0.21466  -0.0492   0.1450   1.0000
  18.500   0.7506   0.22546   0.21849  -0.0500   0.1409   1.0000
  18.750   0.7721   0.23455   0.22764  -0.0493   0.1381   1.0000
  19.000   0.7778   0.23832   0.23138  -0.0512   0.1371   1.0000
  19.250   0.7723   0.23567   0.22869  -0.0548   0.1354   1.0000
  19.500   0.7763   0.23707   0.23009  -0.0572   0.1318   1.0000
  19.750   0.7841   0.23991   0.23294  -0.0587   0.1281   1.0000
  20.000   0.7954   0.24406   0.23713  -0.0595   0.1247   1.0000
   0.000  -0.1901   0.01924   0.01079   0.0299   1.0000   0.8433
  -0.250  -0.2238   0.01905   0.01042   0.0314   1.0000   0.8061
  -0.500  -0.2490   0.01901   0.01018   0.0310   1.0000   0.7752
  -0.750  -0.2694   0.01907   0.01010   0.0299   1.0000   0.7483
  -1.000  -0.2877   0.01919   0.01010   0.0282   1.0000   0.7193
  -1.250  -0.3026   0.01924   0.01015   0.0261   1.0000   0.6852
  -1.500  -0.3161   0.01916   0.01010   0.0235   1.0000   0.6427
  -1.750  -0.3320   0.01935   0.00962   0.0200   1.0000   0.6054
  -2.000  -0.3721   0.02356   0.01313   0.0224   1.0000   0.5479
  -2.250  -0.3809   0.02813   0.01798   0.0207   1.0000   0.4983
  -2.500  -0.3900   0.03062   0.02069   0.0185   1.0000   0.4647
  -2.750  -0.4030   0.03150   0.02178   0.0164   1.0000   0.4401
  -3.000  -0.4192   0.03196   0.02232   0.0144   1.0000   0.4218
  -3.250  -0.4371   0.03199   0.02254   0.0129   1.0000   0.4047
  -3.500  -0.4562   0.03218   0.02284   0.0113   1.0000   0.3911
  -3.750  -0.4762   0.03227   0.02298   0.0097   1.0000   0.3790
  -4.000  -0.4966   0.03235   0.02311   0.0080   1.0000   0.3679
  -4.250  -0.5163   0.03285   0.02367   0.0065   1.0000   0.3589
  -4.500  -0.5374   0.03309   0.02394   0.0049   1.0000   0.3522
  -4.750  -0.5575   0.03359   0.02451   0.0033   1.0000   0.3445
  -5.000  -0.5787   0.03374   0.02467   0.0015   1.0000   0.3372
  -5.250  -0.6000   0.03391   0.02487  -0.0003   1.0000   0.3296
  -5.500  -0.6194   0.03473   0.02575  -0.0020   1.0000   0.3233
  -5.750  -0.6435   0.03392   0.02477  -0.0042   1.0000   0.3122
  -6.000  -0.6643   0.03383   0.02445  -0.0065   1.0000   0.2961
  -6.250  -0.6824   0.03473   0.02515  -0.0086   1.0000   0.2777
  -6.500  -0.6941   0.03646   0.02707  -0.0108   1.0000   0.2583
  -6.750  -0.7071   0.03823   0.02898  -0.0130   1.0000   0.2402
  -7.000  -0.7179   0.04026   0.03121  -0.0153   1.0000   0.2210
  -7.250  -0.7262   0.04284   0.03399  -0.0178   1.0000   0.2027
  -7.500  -0.7349   0.04548   0.03676  -0.0202   1.0000   0.1881
  -7.750  -0.7546   0.04687   0.03795  -0.0220   1.0000   0.1752
  -8.000  -0.7369   0.05247   0.04424  -0.0243   1.0000   0.1709
  -8.250  -0.7163   0.05870   0.05086  -0.0251   1.0000   0.1686
  -8.500  -0.6872   0.06607   0.05841  -0.0243   1.0000   0.1695
  -8.750  -0.6588   0.07328   0.06564  -0.0226   1.0000   0.1712
  -9.000  -0.6363   0.07946   0.07178  -0.0213   1.0000   0.1728
  -9.250  -0.6233   0.08533   0.07758  -0.0195   1.0000   0.1741
  -9.250  -0.6141   0.08655   0.07880  -0.0179   1.0000   0.1766
  -9.350  -0.6173   0.08809   0.08034  -0.0181   1.0000   0.1759
  -9.450  -0.6227   0.08955   0.08181  -0.0186   1.0000   0.1754
 -10.250  -0.4369   0.11795   0.11040  -0.0002   1.0000   0.2943
 -10.500  -0.4104   0.11919   0.11157   0.0010   1.0000   0.2884
 -10.750  -0.4414   0.12485   0.11727   0.0002   1.0000   0.2780
 -11.000  -0.4158   0.12573   0.11809   0.0015   1.0000   0.2721
 -11.250  -0.4278   0.12941   0.12179   0.0013   1.0000   0.2641
 -11.500  -0.4366   0.13389   0.12627   0.0017   1.0000   0.2604
 -11.750  -0.4219   0.13492   0.12728   0.0027   1.0000   0.2533
 -12.000  -0.4583   0.14194   0.13437   0.0018   1.0000   0.2445
 -12.250  -0.5422   0.14568   0.13746   0.0105   1.0000   0.2328
 -12.500  -0.5702   0.15209   0.14394   0.0096   1.0000   0.2274
 -12.750  -0.5638   0.15452   0.14630   0.0113   1.0000   0.2252
 -13.000  -0.5551   0.15558   0.14731   0.0132   1.0000   0.2189
 -13.250  -0.5687   0.15955   0.15132   0.0132   1.0000   0.2123
 -13.500  -0.5871   0.16589   0.15768   0.0132   1.0000   0.2085
 -13.750  -0.5726   0.16545   0.15717   0.0157   1.0000   0.2037
 -14.000  -0.5801   0.16853   0.16025   0.0164   1.0000   0.1972
 -14.250  -0.6030   0.17493   0.16671   0.0159   1.0000   0.1931
 -14.500  -0.6063   0.17868   0.17043   0.0173   1.0000   0.1913
 -14.750  -0.5967   0.17833   0.17002   0.0199   1.0000   0.1872
 -15.000  -0.6025   0.18110   0.17279   0.0210   1.0000   0.1820
 -15.250  -0.6193   0.18611   0.17785   0.0209   1.0000   0.1771
 -15.500  -0.6317   0.19203   0.18376   0.0216   1.0000   0.1744
 -15.750  -0.6229   0.19101   0.18269   0.0245   1.0000   0.1707
 -16.000  -0.6285   0.19356   0.18524   0.0259   1.0000   0.1660
 -16.250  -0.6393   0.19731   0.18900   0.0266   1.0000   0.1620
 -16.500  -0.6656   0.20683   0.19860   0.0257   1.0000   0.1587
 -16.750  -0.6636   0.20795   0.19965   0.0280   1.0000   0.1576
 -17.000  -0.6577   0.20661   0.19828   0.0311   1.0000   0.1543
 -17.250  -0.6635   0.20900   0.20066   0.0327   1.0000   0.1495
 -17.500  -0.6742   0.21261   0.20431   0.0334   1.0000   0.1455
 -17.750  -0.6974   0.22205   0.21381   0.0326   1.0000   0.1424
 -18.000  -0.7011   0.22488   0.21659   0.0346   1.0000   0.1414
 -18.250  -0.6966   0.22289   0.21456   0.0378   1.0000   0.1397
 -18.500  -0.7002   0.22427   0.21594   0.0401   1.0000   0.1360
 -18.750  -0.7080   0.22710   0.21877   0.0415   1.0000   0.1322
 -19.000  -0.7193   0.23110   0.22279   0.0423   1.0000   0.1288
 -19.250  -0.7470   0.24538   0.23715   0.0409   1.0000   0.1261
 -19.500  -0.7402   0.24120   0.23292   0.0444   1.0000   0.1254
 -19.750  -0.7395   0.23988   0.23156   0.0476   1.0000   0.1234
 -20.000  -0.7452   0.24182   0.23350   0.0497   1.0000   0.1202
