  
       XFOIL         Version 6.99
  
 Calculated polar for: E64  (8.45%)                                    
  
 1 1 Reynolds number fixed          Mach number fixed         
  
 xtrf =   1.000 (top)        1.000 (bottom)  
 Mach =   0.000     Re =     0.050 e 6     Ncrit =   9.000
  
   alpha    CL        CD       CDp       CM     Top_Xtr  Bot_Xtr
  ------ -------- --------- --------- -------- -------- --------
   0.000   0.1114   0.02133   0.01151  -0.0551   1.0000   1.0000
   0.250   0.1330   0.02187   0.01184  -0.0551   1.0000   1.0000
   0.500   0.1541   0.02245   0.01225  -0.0551   1.0000   1.0000
   0.750   0.1748   0.02308   0.01270  -0.0552   1.0000   1.0000
   1.000   0.1949   0.02376   0.01326  -0.0551   1.0000   1.0000
   1.250   0.2146   0.02449   0.01389  -0.0552   1.0000   1.0000
   1.500   0.2338   0.02528   0.01459  -0.0552   1.0000   1.0000
   1.750   0.2524   0.02614   0.01537  -0.0552   1.0000   1.0000
   2.000   0.2707   0.02706   0.01624  -0.0553   1.0000   1.0000
   2.250   0.3034   0.02834   0.01748  -0.0583   0.9923   1.0000
   2.500   0.3549   0.02989   0.01903  -0.0644   0.9744   1.0000
   2.750   0.4017   0.03117   0.02033  -0.0694   0.9559   1.0000
   3.000   0.4457   0.03227   0.02148  -0.0736   0.9367   1.0000
   3.250   0.4962   0.03333   0.02264  -0.0786   0.9183   1.0000
   3.500   0.5331   0.03412   0.02353  -0.0811   0.8971   1.0000
   3.750   0.5817   0.03479   0.02434  -0.0850   0.8770   1.0000
   4.000   0.6198   0.03534   0.02508  -0.0871   0.8548   1.0000
   4.250   0.6707   0.03552   0.02547  -0.0905   0.8340   1.0000
   4.500   0.7082   0.03572   0.02588  -0.0917   0.8103   1.0000
   4.750   0.7635   0.03510   0.02561  -0.0944   0.7881   1.0000
   5.000   0.8141   0.03416   0.02499  -0.0959   0.7638   1.0000
   5.250   0.8673   0.03270   0.02390  -0.0969   0.7377   1.0000
   5.500   0.9237   0.03059   0.02222  -0.0973   0.7090   1.0000
   5.750   0.9820   0.02804   0.02002  -0.0972   0.6741   1.0000
   6.000   1.0203   0.02668   0.01887  -0.0951   0.6291   1.0000
   6.250   1.0533   0.02580   0.01798  -0.0924   0.5747   1.0000
   6.500   1.0742   0.02589   0.01794  -0.0889   0.5130   1.0000
   6.750   1.0917   0.02648   0.01819  -0.0852   0.4458   1.0000
   7.000   1.1035   0.02767   0.01906  -0.0814   0.3781   1.0000
   7.250   1.1148   0.02932   0.02025  -0.0779   0.3129   1.0000
   7.500   1.1240   0.03138   0.02191  -0.0745   0.2506   1.0000
   7.750   1.1280   0.03343   0.02355  -0.0708   0.1950   1.0000
   8.000   1.1367   0.03601   0.02566  -0.0681   0.1483   1.0000
   8.250   1.1588   0.03927   0.02876  -0.0668   0.1183   1.0000
   8.500   1.1878   0.04299   0.03270  -0.0664   0.1047   1.0000
   8.750   1.2102   0.04620   0.03614  -0.0654   0.0957   1.0000
   9.000   1.2255   0.04995   0.04037  -0.0636   0.0907   1.0000
   9.250   1.2366   0.05386   0.04485  -0.0614   0.0880   1.0000
   9.500   1.2431   0.05812   0.04963  -0.0590   0.0871   1.0000
   9.750   1.2431   0.06258   0.05460  -0.0563   0.0870   1.0000
  10.000   1.2370   0.06719   0.05968  -0.0535   0.0876   1.0000
  10.250   1.2255   0.07183   0.06472  -0.0508   0.0884   1.0000
  10.500   1.2087   0.07636   0.06956  -0.0481   0.0894   1.0000
  10.750   1.1877   0.08072   0.07416  -0.0456   0.0903   1.0000
  11.000   1.1662   0.08543   0.07905  -0.0442   0.0912   1.0000
  11.250   1.1454   0.09066   0.08442  -0.0439   0.0921   1.0000
  11.500   1.1303   0.09640   0.09026  -0.0446   0.0931   1.0000
  11.750   1.0994   0.10310   0.09713  -0.0475   0.0947   1.0000
  12.000   1.0167   0.12132   0.11531  -0.0635   0.1029   1.0000
  12.250   1.0104   0.12919   0.12316  -0.0670   0.1054   1.0000
  12.250   1.0104   0.12920   0.12317  -0.0670   0.1054   1.0000
  12.350   1.0116   0.13158   0.12555  -0.0675   0.1061   1.0000
  12.450   1.0173   0.13318   0.12721  -0.0669   0.1068   1.0000
  12.750   0.9814   0.15261   0.14646  -0.0811   0.1344   1.0000
  13.000   0.9295   0.17239   0.16602  -0.1014   0.2379   1.0000
  13.250   0.9465   0.17794   0.17163  -0.1014   0.2319   1.0000
  13.500   0.9416   0.18185   0.17549  -0.1041   0.2281   1.0000
  13.750   0.9529   0.18630   0.17997  -0.1045   0.2181   1.0000
  14.000   0.9502   0.19002   0.18365  -0.1070   0.2138   1.0000
  14.250   0.9564   0.19376   0.18739  -0.1083   0.2054   1.0000
  14.500   0.9724   0.20030   0.19397  -0.1087   0.2019   1.0000
  14.750   0.9622   0.20144   0.19505  -0.1126   0.1958   1.0000
  15.000   0.9788   0.20702   0.20068  -0.1126   0.1899   1.0000
  15.250   0.9812   0.21099   0.20462  -0.1150   0.1870   1.0000
  15.500   0.9806   0.21320   0.20681  -0.1178   0.1805   1.0000
  15.750   1.0124   0.22352   0.21726  -0.1157   0.1747   1.0000
  16.000   0.9966   0.22183   0.21544  -0.1210   0.1722   1.0000
  16.250   1.0014   0.22470   0.21835  -0.1232   0.1654   1.0000
  16.500   1.0207   0.23231   0.22601  -0.1227   0.1604   1.0000
  16.750   1.0143   0.23215   0.22578  -0.1272   0.1560   1.0000
  17.000   1.0269   0.23677   0.23044  -0.1278   0.1492   1.0000
  17.250   1.0389   0.24290   0.23658  -0.1288   0.1465   1.0000
  17.500   1.0358   0.24309   0.23672  -0.1331   0.1424   1.0000
  17.750   1.0444   0.24674   0.24040  -0.1348   0.1375   1.0000
  18.000   1.0699   0.25821   0.25195  -0.1329   0.1335   1.0000
  18.250   1.0619   0.25554   0.24920  -0.1383   0.1320   1.0000
  18.500   1.0650   0.25723   0.25088  -0.1415   0.1276   1.0000
  18.750   1.0749   0.26121   0.25489  -0.1429   0.1233   1.0000
  19.000   1.0969   0.27261   0.26640  -0.1415   0.1200   1.0000
  19.250   1.0916   0.26972   0.26340  -0.1468   0.1187   1.0000
  19.500   1.0952   0.27113   0.26483  -0.1501   0.1145   1.0000
  19.750   1.1050   0.27504   0.26877  -0.1515   0.1099   1.0000
  20.000   1.1234   0.28545   0.27923  -0.1507   0.1067   1.0000
   0.000   0.1114   0.02133   0.01151  -0.0551   1.0000   1.0000
  -0.250   0.0893   0.02084   0.01126  -0.0551   1.0000   1.0000
  -0.500   0.0665   0.02039   0.01109  -0.0550   1.0000   1.0000
  -0.750   0.0431   0.01999   0.01104  -0.0548   1.0000   1.0000
  -1.000   0.0187   0.01962   0.01107  -0.0544   1.0000   1.0000
  -1.250  -0.0073   0.01930   0.01124  -0.0537   1.0000   1.0000
  -1.500  -0.0390   0.01903   0.01174  -0.0516   1.0000   1.0000
  -1.750  -0.0396   0.02019   0.01249  -0.0582   1.0000   0.7008
  -2.250  -0.0794   0.02411   0.01368  -0.0640   1.0000   0.1974
  -2.000  -0.0477   0.02157   0.01256  -0.0643   1.0000   0.4396
  -2.100  -0.0600   0.02271   0.01292  -0.0645   1.0000   0.3071
  -2.200  -0.0732   0.02370   0.01343  -0.0641   1.0000   0.2226
  -2.500  -0.1059   0.02566   0.01498  -0.0644   1.0000   0.1437
  -2.750  -0.1328   0.02731   0.01680  -0.0650   1.0000   0.1265
  -3.000  -0.1595   0.02904   0.01861  -0.0651   1.0000   0.1142
  -3.250  -0.1910   0.03113   0.02144  -0.0646   1.0000   0.1093
  -3.500  -0.2229   0.03393   0.02480  -0.0636   1.0000   0.1095
  -3.750  -0.2542   0.03733   0.02873  -0.0621   1.0000   0.1122
  -4.250  -0.3275   0.04841   0.04142  -0.0529   1.0000   0.1390
  -4.250  -0.3192   0.04656   0.03923  -0.0561   1.0000   0.1299
  -4.750  -0.4154   0.07310   0.06755  -0.0015   1.0000   0.3667
  -5.000  -0.4233   0.07612   0.07052  -0.0060   1.0000   0.3477
  -5.250  -0.4147   0.07802   0.07231  -0.0063   1.0000   0.3274
  -5.100  -0.4147   0.07644   0.07078  -0.0047   1.0000   0.3386
  -5.500  -0.4123   0.08033   0.07454  -0.0082   1.0000   0.3105
  -5.750  -0.4102   0.08270   0.07682  -0.0100   1.0000   0.2961
  -6.000  -0.4096   0.08532   0.07936  -0.0120   1.0000   0.2843
  -6.250  -0.4201   0.08897   0.08297  -0.0151   1.0000   0.2729
  -6.000  -0.4096   0.08532   0.07936  -0.0120   1.0000   0.2843
  -6.100  -0.4072   0.08600   0.08000  -0.0125   1.0000   0.2789
  -6.200  -0.4240   0.08862   0.08267  -0.0154   1.0000   0.2739
  -6.500  -0.4093   0.09045   0.08433  -0.0158   1.0000   0.2611
  -6.750  -0.3945   0.09199   0.08571  -0.0173   1.0000   0.2542
  -7.000  -0.4124   0.09654   0.09028  -0.0192   1.0000   0.2437
  -7.250  -0.3826   0.09605   0.08957  -0.0210   1.0000   0.2378
  -7.500  -0.3993   0.10067   0.09418  -0.0227   1.0000   0.2289
  -7.750  -0.3781   0.10076   0.09410  -0.0235   1.0000   0.2218
  -8.000  -0.3942   0.10551   0.09883  -0.0250   1.0000   0.2143
  -8.250  -0.3770   0.10584   0.09900  -0.0250   1.0000   0.2074
  -8.500  -0.3966   0.11120   0.10437  -0.0267   1.0000   0.2000
  -8.750  -0.3785   0.11122   0.10423  -0.0258   1.0000   0.1944
  -9.000  -0.4068   0.11805   0.11111  -0.0281   1.0000   0.1860
  -9.250  -0.3851   0.11728   0.11017  -0.0264   1.0000   0.1831
  -9.500  -0.3862   0.11962   0.11245  -0.0264   1.0000   0.1760
  -9.750  -0.4019   0.12507   0.11788  -0.0275   1.0000   0.1710
 -10.000  -0.3895   0.12531   0.11800  -0.0259   1.0000   0.1666
 -10.250  -0.3970   0.12866   0.12133  -0.0263   1.0000   0.1600
 -10.500  -0.4076   0.13347   0.12611  -0.0267   1.0000   0.1564
 -10.750  -0.3985   0.13402   0.12656  -0.0251   1.0000   0.1522
 -11.000  -0.4056   0.13724   0.12979  -0.0252   1.0000   0.1461
 -11.250  -0.4195   0.14286   0.13539  -0.0258   1.0000   0.1422
 -11.500  -0.4098   0.14289   0.13532  -0.0239   1.0000   0.1383
 -11.750  -0.4145   0.14567   0.13808  -0.0234   1.0000   0.1334
 -12.000  -0.4367   0.15337   0.14580  -0.0249   1.0000   0.1283
 -12.250  -0.4270   0.15296   0.14529  -0.0227   1.0000   0.1268
 -12.500  -0.4265   0.15460   0.14689  -0.0213   1.0000   0.1227
 -12.750  -0.4331   0.15777   0.15004  -0.0208   1.0000   0.1184
 -13.000  -0.4610   0.16777   0.16008  -0.0226   1.0000   0.1143
 -13.250  -0.4516   0.16683   0.15906  -0.0203   1.0000   0.1136
 -13.500  -0.4487   0.16732   0.15949  -0.0183   1.0000   0.1116
 -13.750  -0.4520   0.16961   0.16175  -0.0171   1.0000   0.1078
 -14.000  -0.4592   0.17288   0.16501  -0.0164   1.0000   0.1044
 -14.250  -0.4785   0.18053   0.17273  -0.0173   1.0000   0.1009
 -14.500  -0.4836   0.18412   0.17627  -0.0162   1.0000   0.1000
 -14.750  -0.4807   0.18379   0.17588  -0.0139   1.0000   0.0990
 -15.000  -0.4824   0.18504   0.17710  -0.0120   1.0000   0.0966
 -15.250  -0.4882   0.18766   0.17970  -0.0107   1.0000   0.0936
 -15.500  -0.4958   0.19087   0.18290  -0.0098   1.0000   0.0907
 -15.750  -0.5071   0.19570   0.18773  -0.0096   1.0000   0.0880
 -16.000  -0.5254   0.20523   0.19728  -0.0099   1.0000   0.0863
 -16.250  -0.5237   0.20430   0.19629  -0.0075   1.0000   0.0859
 -16.500  -0.5247   0.20424   0.19619  -0.0051   1.0000   0.0847
 -16.750  -0.5297   0.20597   0.19789  -0.0032   1.0000   0.0827
 -17.000  -0.5365   0.20863   0.20054  -0.0017   1.0000   0.0803
 -17.250  -0.5442   0.21163   0.20354  -0.0004   1.0000   0.0779
 -17.500  -0.5531   0.21522   0.20716   0.0006   1.0000   0.0756
 -17.750  -0.5781   0.23026   0.22225  -0.0010   1.0000   0.0728
 -18.000  -0.5771   0.22835   0.22029   0.0016   1.0000   0.0726
 -18.250  -0.5787   0.22738   0.21929   0.0042   1.0000   0.0721
 -18.500  -0.5826   0.22749   0.21936   0.0067   1.0000   0.0708
 -18.750  -0.5892   0.22948   0.22134   0.0087   1.0000   0.0688
 -19.000  -0.5968   0.23212   0.22397   0.0104   1.0000   0.0669
 -19.250  -0.6047   0.23502   0.22687   0.0120   1.0000   0.0651
 -19.500  -0.6131   0.23820   0.23006   0.0134   1.0000   0.0633
 -19.750  -0.6221   0.24189   0.23375   0.0146   1.0000   0.0618
 -20.000  -0.6341   0.24892   0.24081   0.0150   1.0000   0.0603
