  
       XFOIL         Version 6.99
  
 Calculated polar for: St. CYR 172 (Royer)                             
  
 1 1 Reynolds number fixed          Mach number fixed         
  
 xtrf =   1.000 (top)        1.000 (bottom)  
 Mach =   0.000     Re =     0.050 e 6     Ncrit =   9.000
  
   alpha    CL        CD       CDp       CM     Top_Xtr  Bot_Xtr
  ------ -------- --------- --------- -------- -------- --------
   0.000  -0.0001   0.02571   0.01729   0.0000   1.0000   1.0000
   0.250   0.0765   0.02581   0.01740  -0.0137   0.9695   1.0000
   0.500   0.2014   0.02497   0.01661  -0.0323   0.9257   1.0000
   0.750   0.3130   0.02356   0.01526  -0.0468   0.8797   1.0000
   1.000   0.3703   0.02271   0.01432  -0.0511   0.8278   1.0000
   1.250   0.4007   0.02229   0.01374  -0.0507   0.7832   1.0000
   1.500   0.4228   0.02216   0.01342  -0.0490   0.7452   1.0000
   1.750   0.4431   0.02223   0.01330  -0.0471   0.7120   1.0000
   2.000   0.4639   0.02244   0.01336  -0.0454   0.6815   1.0000
   2.250   0.4816   0.02280   0.01362  -0.0434   0.6528   1.0000
   2.500   0.5012   0.02313   0.01382  -0.0416   0.6272   1.0000
   2.750   0.5188   0.02359   0.01420  -0.0396   0.6027   1.0000
   3.000   0.5362   0.02409   0.01465  -0.0376   0.5793   1.0000
   3.250   0.5545   0.02463   0.01511  -0.0356   0.5577   1.0000
   3.500   0.5732   0.02523   0.01561  -0.0337   0.5375   1.0000
   3.750   0.5915   0.02593   0.01626  -0.0318   0.5187   1.0000
   4.000   0.6090   0.02675   0.01708  -0.0299   0.5012   1.0000
   4.250   0.6254   0.02767   0.01803  -0.0280   0.4849   1.0000
   4.500   0.6412   0.02868   0.01909  -0.0260   0.4696   1.0000
   4.750   0.6572   0.02977   0.02024  -0.0241   0.4566   1.0000
   5.000   0.6775   0.03073   0.02114  -0.0225   0.4451   1.0000
   5.250   0.6878   0.03215   0.02278  -0.0201   0.4328   1.0000
   5.500   0.7025   0.03341   0.02412  -0.0181   0.4217   1.0000
   5.750   0.7227   0.03422   0.02488  -0.0163   0.4090   1.0000
   6.000   0.7339   0.03522   0.02599  -0.0136   0.3934   1.0000
   6.250   0.7518   0.03547   0.02616  -0.0112   0.3746   1.0000
   6.500   0.7708   0.03554   0.02612  -0.0088   0.3554   1.0000
   6.750   0.7857   0.03606   0.02667  -0.0063   0.3384   1.0000
   7.000   0.8005   0.03668   0.02734  -0.0038   0.3216   1.0000
   7.250   0.8204   0.03684   0.02738  -0.0016   0.3025   1.0000
   7.500   0.8295   0.03772   0.02838   0.0016   0.2819   1.0000
   7.750   0.8408   0.03849   0.02916   0.0047   0.2591   1.0000
   8.000   0.8591   0.03901   0.02947   0.0071   0.2376   1.0000
   8.250   0.8717   0.04035   0.03076   0.0097   0.2210   1.0000
   8.500   0.8741   0.04260   0.03325   0.0129   0.2088   1.0000
   8.750   0.8821   0.04476   0.03548   0.0155   0.1997   1.0000
   9.000   0.8840   0.04727   0.03819   0.0184   0.1923   1.0000
   9.250   0.8934   0.04944   0.04037   0.0205   0.1856   1.0000
   9.500   0.8718   0.05358   0.04491   0.0244   0.1828   1.0000
   9.750   0.8446   0.05810   0.04971   0.0279   0.1812   1.0000
  10.000   0.8015   0.06368   0.05546   0.0311   0.1819   1.0000
  10.250   0.7471   0.07093   0.06275   0.0320   0.1846   1.0000
  10.500   0.7015   0.08026   0.07205   0.0284   0.1867   1.0000
  10.500   0.7015   0.08026   0.07205   0.0284   0.1867   1.0000
  10.600   0.6870   0.08435   0.07613   0.0263   0.1873   1.0000
  11.000   0.5637   0.11316   0.10471   0.0069   0.2217   1.0000
  11.250   0.5826   0.11680   0.10838   0.0077   0.2195   1.0000
  11.500   0.4982   0.13167   0.12314  -0.0066   0.3096   1.0000
  11.750   0.5378   0.13807   0.12964  -0.0059   0.3022   1.0000
  12.000   0.5113   0.13902   0.13048  -0.0075   0.2988   1.0000
  12.250   0.5121   0.14167   0.13312  -0.0081   0.2911   1.0000
  12.500   0.5498   0.14870   0.14022  -0.0075   0.2851   1.0000
  12.750   0.5216   0.14844   0.13987  -0.0094   0.2802   1.0000
  13.000   0.5332   0.15177   0.14321  -0.0095   0.2717   1.0000
  13.250   0.5575   0.15816   0.14963  -0.0096   0.2681   1.0000
  13.500   0.5365   0.15787   0.14928  -0.0115   0.2623   1.0000
  13.750   0.5475   0.16128   0.15270  -0.0118   0.2556   1.0000
  14.000   0.5714   0.16778   0.15923  -0.0118   0.2515   1.0000
  14.250   0.5540   0.16727   0.15867  -0.0139   0.2454   1.0000
  14.500   0.5673   0.17092   0.16234  -0.0141   0.2386   1.0000
  14.750   0.5930   0.17829   0.16974  -0.0141   0.2353   1.0000
  15.000   0.5742   0.17696   0.16835  -0.0166   0.2310   1.0000
  15.250   0.5811   0.17976   0.17115  -0.0176   0.2247   1.0000
  15.250   0.5811   0.17976   0.17115  -0.0176   0.2247   1.0000
  15.350   0.5885   0.18160   0.17301  -0.0175   0.2223   1.0000
  15.450   0.6004   0.18461   0.17604  -0.0172   0.2205   1.0000
  15.750   0.5970   0.18681   0.17821  -0.0195   0.2166   1.0000
  16.000   0.6000   0.18885   0.18023  -0.0209   0.2102   1.0000
  16.250   0.6150   0.19320   0.18462  -0.0212   0.2056   1.0000
  16.500   0.6347   0.20034   0.19178  -0.0214   0.2030   1.0000
  16.750   0.6218   0.19854   0.18992  -0.0244   0.1992   1.0000
  17.000   0.6286   0.20109   0.19248  -0.0257   0.1934   1.0000
  17.250   0.6479   0.20679   0.19823  -0.0255   0.1888   1.0000
  17.500   0.6571   0.21151   0.20294  -0.0267   0.1870   1.0000
  17.750   0.6503   0.21052   0.20191  -0.0297   0.1832   1.0000
  18.000   0.6573   0.21312   0.20451  -0.0311   0.1782   1.0000
  18.250   0.6723   0.21780   0.20923  -0.0313   0.1739   1.0000
  18.500   0.6880   0.22468   0.21612  -0.0319   0.1716   1.0000
  18.750   0.6805   0.22262   0.21402  -0.0352   0.1685   1.0000
  19.000   0.6865   0.22493   0.21633  -0.0369   0.1640   1.0000
  19.250   0.6973   0.22848   0.21991  -0.0378   0.1602   1.0000
  19.500   0.7247   0.23989   0.23141  -0.0368   0.1570   1.0000
  19.750   0.7156   0.23642   0.22785  -0.0404   0.1557   1.0000
  20.000   0.7168   0.23678   0.22819  -0.0431   0.1514   1.0000
   0.000  -0.0001   0.02571   0.01729   0.0000   1.0000   1.0000
  -0.250  -0.0767   0.02581   0.01740   0.0137   1.0000   0.9695
  -0.500  -0.2014   0.02497   0.01662   0.0323   1.0000   0.9258
  -0.750  -0.3132   0.02357   0.01527   0.0468   1.0000   0.8797
  -1.000  -0.3704   0.02271   0.01432   0.0511   1.0000   0.8277
  -1.250  -0.4007   0.02230   0.01374   0.0507   1.0000   0.7832
  -1.500  -0.4228   0.02217   0.01343   0.0490   1.0000   0.7452
  -1.750  -0.4432   0.02224   0.01331   0.0471   1.0000   0.7119
  -2.000  -0.4639   0.02244   0.01336   0.0454   1.0000   0.6814
  -2.250  -0.4816   0.02280   0.01362   0.0434   1.0000   0.6527
  -2.500  -0.5012   0.02314   0.01383   0.0416   1.0000   0.6272
  -2.750  -0.5188   0.02359   0.01420   0.0396   1.0000   0.6026
  -3.000  -0.5362   0.02410   0.01466   0.0376   1.0000   0.5792
  -3.250  -0.5546   0.02463   0.01511   0.0356   1.0000   0.5578
  -3.500  -0.5733   0.02522   0.01561   0.0337   1.0000   0.5374
  -3.750  -0.5916   0.02593   0.01626   0.0318   1.0000   0.5186
  -4.000  -0.6090   0.02676   0.01708   0.0299   1.0000   0.5011
  -4.250  -0.6254   0.02767   0.01804   0.0280   1.0000   0.4848
  -4.500  -0.6412   0.02868   0.01909   0.0260   1.0000   0.4696
  -4.750  -0.6573   0.02977   0.02025   0.0241   1.0000   0.4565
  -5.000  -0.6776   0.03073   0.02114   0.0225   1.0000   0.4451
  -5.250  -0.6878   0.03215   0.02279   0.0201   1.0000   0.4328
  -5.500  -0.7026   0.03341   0.02412   0.0181   1.0000   0.4218
  -5.750  -0.7228   0.03422   0.02487   0.0163   1.0000   0.4089
  -6.000  -0.7340   0.03521   0.02598   0.0136   1.0000   0.3934
  -6.250  -0.7518   0.03547   0.02616   0.0112   1.0000   0.3746
  -6.500  -0.7713   0.03548   0.02605   0.0089   1.0000   0.3551
  -6.750  -0.7859   0.03604   0.02665   0.0063   1.0000   0.3383
  -7.000  -0.8004   0.03669   0.02736   0.0038   1.0000   0.3216
  -7.250  -0.8210   0.03678   0.02731   0.0017   1.0000   0.3023
  -7.500  -0.8294   0.03771   0.02838  -0.0016   1.0000   0.2817
  -7.750  -0.8409   0.03846   0.02913  -0.0047   1.0000   0.2588
  -8.000  -0.8596   0.03897   0.02941  -0.0070   1.0000   0.2374
  -8.250  -0.8719   0.04033   0.03074  -0.0096   1.0000   0.2209
  -8.250  -0.8719   0.04033   0.03074  -0.0096   1.0000   0.2209
  -8.350  -0.8714   0.04138   0.03190  -0.0111   1.0000   0.2162
  -8.450  -0.8704   0.04240   0.03306  -0.0126   1.0000   0.2114
  -8.750  -0.8821   0.04476   0.03548  -0.0155   1.0000   0.1998
  -9.000  -0.8839   0.04727   0.03819  -0.0184   1.0000   0.1923
  -9.250  -0.8935   0.04942   0.04035  -0.0205   1.0000   0.1857
  -9.500  -0.8716   0.05357   0.04490  -0.0244   1.0000   0.1828
  -9.750  -0.8444   0.05810   0.04970  -0.0279   1.0000   0.1812
 -10.000  -0.8015   0.06368   0.05546  -0.0311   1.0000   0.1820
 -10.250  -0.7461   0.07096   0.06279  -0.0320   1.0000   0.1846
 -10.500  -0.6996   0.08040   0.07220  -0.0283   1.0000   0.1867
 -10.500  -0.6996   0.08040   0.07220  -0.0283   1.0000   0.1867
 -10.600  -0.6874   0.08417   0.07595  -0.0266   1.0000   0.1873
 -11.000  -0.5667   0.11230   0.10384  -0.0079   1.0000   0.2171
 -11.250  -0.5807   0.11683   0.10842  -0.0078   1.0000   0.2196
 -11.750  -0.3853   0.13118   0.12326  -0.0004   1.0000   0.3084
 -12.000  -0.4134   0.13696   0.12906  -0.0004   1.0000   0.3016
 -12.250  -0.3894   0.13675   0.12884   0.0003   1.0000   0.2950
 -12.500  -0.4029   0.14032   0.13244   0.0003   1.0000   0.2877
 -12.750  -0.4139   0.14479   0.13691   0.0008   1.0000   0.2843
 -13.000  -0.3979   0.14442   0.13654   0.0016   1.0000   0.2771
 -13.250  -0.4224   0.14973   0.14190   0.0014   1.0000   0.2694
 -13.500  -0.4105   0.15025   0.14240   0.0024   1.0000   0.2659
 -13.750  -0.4072   0.15098   0.14316   0.0030   1.0000   0.2580
 -14.000  -0.4301   0.15673   0.14893   0.0030   1.0000   0.2529
 -14.250  -0.4207   0.15707   0.14928   0.0041   1.0000   0.2500
 -14.500  -0.4152   0.15724   0.14948   0.0050   1.0000   0.2427
 -14.750  -0.4384   0.16307   0.15533   0.0049   1.0000   0.2365
 -15.000  -0.4301   0.16336   0.15563   0.0062   1.0000   0.2336
 -15.250  -0.4262   0.16380   0.15609   0.0073   1.0000   0.2272
 -15.500  -0.4375   0.16716   0.15949   0.0077   1.0000   0.2221
 -15.750  -0.4555   0.17346   0.16580   0.0080   1.0000   0.2190
 -16.000  -0.4394   0.17093   0.16328   0.0100   1.0000   0.2145
 -16.250  -0.4452   0.17312   0.16550   0.0107   1.0000   0.2082
 -16.500  -0.4688   0.18030   0.17272   0.0106   1.0000   0.2038
 -16.750  -0.4606   0.17993   0.17234   0.0123   1.0000   0.2020
 -17.000  -0.4562   0.18001   0.17245   0.0139   1.0000   0.1970
 -17.250  -0.4636   0.18267   0.17514   0.0147   1.0000   0.1917
 -17.500  -0.4935   0.19284   0.18533   0.0143   1.0000   0.1876
 -17.750  -0.4754   0.18870   0.18121   0.0167   1.0000   0.1857
 -18.000  -0.4747   0.18959   0.18212   0.0183   1.0000   0.1808
 -18.250  -0.4815   0.19229   0.18485   0.0192   1.0000   0.1764
 -18.500  -0.4995   0.19863   0.19124   0.0192   1.0000   0.1728
 -18.750  -0.4979   0.19987   0.19248   0.0209   1.0000   0.1711
 -19.000  -0.4938   0.19969   0.19232   0.0229   1.0000   0.1668
 -19.250  -0.4993   0.20214   0.19480   0.0241   1.0000   0.1622
 -19.500  -0.5100   0.20616   0.19886   0.0246   1.0000   0.1588
 -19.750  -0.5253   0.21334   0.20604   0.0251   1.0000   0.1567
 -20.000  -0.5154   0.21087   0.20360   0.0276   1.0000   0.1546
