  
       XFOIL         Version 6.99
  
 Calculated polar for: E71  (5.15%)                                    
  
 1 1 Reynolds number fixed          Mach number fixed         
  
 xtrf =   1.000 (top)        1.000 (bottom)  
 Mach =   0.000     Re =     0.050 e 6     Ncrit =   9.000
  
   alpha    CL        CD       CDp       CM     Top_Xtr  Bot_Xtr
  ------ -------- --------- --------- -------- -------- --------
   0.000   0.3479   0.02053   0.01101  -0.1093   1.0000   1.0000
   0.250   0.3721   0.02098   0.01108  -0.1093   1.0000   1.0000
   0.500   0.3958   0.02146   0.01131  -0.1091   1.0000   1.0000
   0.750   0.4189   0.02199   0.01163  -0.1090   1.0000   1.0000
   1.000   0.4414   0.02255   0.01204  -0.1088   1.0000   1.0000
   1.250   0.4635   0.02317   0.01253  -0.1086   1.0000   1.0000
   1.500   0.4850   0.02383   0.01310  -0.1084   1.0000   1.0000
   1.750   0.5060   0.02454   0.01375  -0.1082   1.0000   1.0000
   2.000   0.5264   0.02532   0.01449  -0.1080   1.0000   1.0000
   2.250   0.5464   0.02616   0.01532  -0.1078   1.0000   1.0000
   2.500   0.5656   0.02707   0.01625  -0.1077   1.0000   1.0000
   2.750   0.5843   0.02807   0.01729  -0.1076   1.0000   1.0000
   3.000   0.6021   0.02916   0.01848  -0.1075   1.0000   1.0000
   3.250   0.6193   0.03036   0.01976  -0.1075   1.0000   1.0000
   3.500   0.6357   0.03168   0.02118  -0.1075   1.0000   1.0000
   3.750   0.6727   0.03334   0.02302  -0.1116   0.9868   1.0000
   4.000   0.7352   0.03471   0.02474  -0.1195   0.9593   1.0000
   4.250   0.7954   0.03538   0.02575  -0.1259   0.9300   1.0000
   4.500   0.8547   0.03541   0.02618  -0.1312   0.8979   1.0000
   4.750   0.9268   0.03433   0.02575  -0.1368   0.8648   1.0000
   5.000   1.0017   0.03174   0.02389  -0.1405   0.8254   1.0000
   5.250   1.0820   0.02721   0.02022  -0.1416   0.7725   1.0000
   5.500   1.1385   0.02356   0.01714  -0.1382   0.6701   1.0000
   5.750   1.1604   0.02395   0.01641  -0.1317   0.4699   1.0000
   6.000   1.1631   0.02737   0.01828  -0.1262   0.3014   1.0000
   6.250   1.1701   0.03148   0.02113  -0.1224   0.1697   1.0000
   6.500   1.1927   0.03544   0.02452  -0.1207   0.1051   1.0000
   6.750   1.2240   0.03902   0.02806  -0.1204   0.0843   1.0000
   7.000   1.2563   0.04305   0.03216  -0.1203   0.0755   1.0000
   7.250   1.2831   0.04737   0.03710  -0.1189   0.0732   1.0000
   7.500   1.3038   0.05191   0.04239  -0.1170   0.0727   1.0000
   7.750   1.3197   0.05679   0.04785  -0.1148   0.0731   1.0000
   8.000   1.3327   0.06209   0.05361  -0.1127   0.0741   1.0000
   8.250   1.3441   0.06786   0.05977  -0.1109   0.0750   1.0000
   8.500   1.3287   0.07245   0.06560  -0.1056   0.0801   1.0000
   8.750   1.3212   0.07822   0.07184  -0.1030   0.0829   1.0000
   9.000   1.3155   0.08386   0.07777  -0.1010   0.0852   1.0000
   9.250   1.3196   0.09016   0.08415  -0.1000   0.0872   1.0000
   9.500   1.2682   0.09473   0.08934  -0.0966   0.0927   1.0000
   9.750   1.2405   0.10029   0.09506  -0.0959   0.0950   1.0000
  10.000   1.2203   0.10653   0.10139  -0.0968   0.0975   1.0000
  10.250   1.0705   0.10976   0.10500  -0.0878   0.0905   1.0000
  10.500   1.0253   0.12068   0.11597  -0.0959   0.0938   1.0000
  10.750   1.0076   0.12914   0.12442  -0.1003   0.0979   1.0000
  11.000   0.9785   0.13868   0.13395  -0.1070   0.1060   1.0000
  11.250   1.1011   0.16338   0.15807  -0.1427   0.2276   1.0000
  11.500   1.1050   0.16880   0.16348  -0.1444   0.2250   1.0000
  11.750   1.1217   0.17525   0.16998  -0.1441   0.2220   1.0000
  12.000   1.1054   0.17875   0.17338  -0.1487   0.2152   1.0000
  12.250   1.1187   0.18427   0.17893  -0.1488   0.2094   1.0000
  12.500   1.1155   0.18876   0.18337  -0.1519   0.2049   1.0000
  12.750   1.1201   0.19303   0.18764  -0.1535   0.1974   1.0000
  13.000   1.1331   0.19926   0.19388  -0.1540   0.1934   1.0000
  13.250   1.1259   0.20171   0.19628  -0.1579   0.1861   1.0000
  13.500   1.1522   0.20996   0.20459  -0.1559   0.1805   1.0000
  13.750   1.1359   0.21047   0.20501  -0.1619   0.1758   1.0000
  14.000   1.1532   0.21649   0.21108  -0.1615   0.1683   1.0000
  14.250   1.1520   0.21986   0.21439  -0.1649   0.1652   1.0000
  14.500   1.1551   0.22285   0.21746  -0.1675   0.1577   1.0000
  14.750   1.1687   0.22915   0.22377  -0.1679   0.1527   1.0000
  15.000   1.1661   0.23062   0.22520  -0.1721   0.1468   1.0000
  15.250   1.1899   0.23976   0.23440  -0.1701   0.1401   1.0000
  15.500   1.1814   0.23917   0.23373  -0.1758   0.1374   1.0000
  15.750   1.1874   0.24242   0.23699  -0.1781   0.1314   1.0000
  16.000   1.2112   0.25281   0.24743  -0.1761   0.1269   1.0000
  16.250   1.2036   0.25133   0.24588  -0.1821   0.1249   1.0000
  16.500   1.2078   0.25383   0.24837  -0.1853   0.1205   1.0000
  16.750   1.2198   0.25890   0.25348  -0.1861   0.1159   1.0000
  17.000   1.2348   0.26713   0.26172  -0.1862   0.1134   1.0000
  17.250   1.2318   0.26615   0.26068  -0.1916   0.1113   1.0000
  17.500   1.2378   0.26887   0.26340  -0.1947   0.1071   1.0000
  17.750   1.2483   0.27352   0.26808  -0.1957   0.1030   1.0000
  18.000   1.2662   0.28403   0.27862  -0.1948   0.1005   1.0000
  18.250   1.2645   0.28218   0.27673  -0.2003   0.0994   1.0000
  18.500   1.2685   0.28360   0.27812  -0.2042   0.0962   1.0000
  18.750   1.2761   0.28692   0.28146  -0.2064   0.0927   1.0000
  19.000   1.2871   0.29202   0.28667  -0.2074   0.0896   1.0000
  19.250   1.3043   0.30361   0.29830  -0.2066   0.0875   1.0000
  19.500   1.3041   0.30126   0.29590  -0.2118   0.0868   1.0000
  19.750   1.3080   0.30162   0.29624  -0.2161   0.0847   1.0000
  20.000   1.3149   0.30436   0.29899  -0.2190   0.0819   1.0000
   0.000   0.3479   0.02053   0.01101  -0.1093   1.0000   1.0000
  -0.250   0.3226   0.02012   0.01105  -0.1094   1.0000   1.0000
  -0.500   0.2977   0.01982   0.01160  -0.1098   1.0000   0.9047
  -0.750   0.2704   0.02394   0.01290  -0.1116   1.0000   0.1682
  -1.000   0.2395   0.02493   0.01401  -0.1114   1.0000   0.1387
  -1.250   0.2084   0.02594   0.01518  -0.1108   1.0000   0.1222
  -1.500   0.1746   0.02754   0.01706  -0.1096   1.0000   0.1182
  -1.750   0.1373   0.02950   0.01948  -0.1078   1.0000   0.1184
  -2.000   0.0837   0.03251   0.02356  -0.1027   1.0000   0.1282
  -2.250   0.0320   0.03657   0.02817  -0.0971   1.0000   0.1460
  -2.250  -0.0312   0.04134   0.03413  -0.0828   1.0000   0.2299
  -2.450  -0.2560   0.05453   0.04896  -0.0181   1.0000   0.4292
  -2.750  -0.2629   0.05738   0.05177  -0.0230   1.0000   0.3754
  -3.000  -0.2724   0.06002   0.05436  -0.0256   1.0000   0.3425
  -3.250  -0.2848   0.06287   0.05718  -0.0267   1.0000   0.3141
  -3.500  -0.3003   0.06581   0.06011  -0.0258   1.0000   0.2872
  -3.750  -0.3166   0.06887   0.06316  -0.0233   1.0000   0.2641
  -4.000  -0.3282   0.07186   0.06613  -0.0234   1.0000   0.2465
  -4.250  -0.3390   0.07494   0.06918  -0.0232   1.0000   0.2316
  -4.500  -0.3497   0.07796   0.07217  -0.0219   1.0000   0.2179
  -4.750  -0.3595   0.08087   0.07504  -0.0197   1.0000   0.2055
  -5.000  -0.3667   0.08379   0.07790  -0.0180   1.0000   0.1961
  -5.250  -0.3717   0.08781   0.08190  -0.0235   1.0000   0.1880
  -5.500  -0.3767   0.08923   0.08324  -0.0170   1.0000   0.1791
  -5.750  -0.3830   0.09343   0.08744  -0.0206   1.0000   0.1731
  -6.000  -0.3815   0.09446   0.08838  -0.0168   1.0000   0.1652
  -6.250  -0.3896   0.09889   0.09277  -0.0200   1.0000   0.1593
  -6.500  -0.3824   0.09931   0.09306  -0.0172   1.0000   0.1543
  -6.750  -0.3956   0.10484   0.09859  -0.0211   1.0000   0.1457
  -7.000  -0.3842   0.10473   0.09832  -0.0194   1.0000   0.1439
  -7.250  -0.3752   0.10557   0.09904  -0.0205   1.0000   0.1393
  -7.500  -0.3962   0.11229   0.10578  -0.0221   1.0000   0.1319
  -7.750  -0.3805   0.11171   0.10504  -0.0227   1.0000   0.1307
  -8.000  -0.3734   0.11242   0.10564  -0.0229   1.0000   0.1273
  -8.250  -0.3754   0.11486   0.10802  -0.0235   1.0000   0.1228
  -8.500  -0.3939   0.12196   0.11513  -0.0251   1.0000   0.1181
  -8.750  -0.3840   0.12164   0.11468  -0.0245   1.0000   0.1171
  -9.000  -0.3797   0.12246   0.11541  -0.0239   1.0000   0.1141
  -9.250  -0.3821   0.12486   0.11775  -0.0239   1.0000   0.1100
  -9.500  -0.4081   0.13466   0.12762  -0.0264   1.0000   0.1046
  -9.750  -0.3994   0.13413   0.12696  -0.0252   1.0000   0.1041
 -10.000  -0.3942   0.13419   0.12693  -0.0240   1.0000   0.1028
 -10.250  -0.3941   0.13575   0.12842  -0.0232   1.0000   0.0998
 -10.500  -0.3980   0.13835   0.13098  -0.0230   1.0000   0.0965
 -10.750  -0.4061   0.14235   0.13497  -0.0234   1.0000   0.0930
 -11.000  -0.4213   0.15000   0.14261  -0.0245   1.0000   0.0907
 -11.250  -0.4164   0.14970   0.14223  -0.0230   1.0000   0.0900
 -11.500  -0.4153   0.15040   0.14285  -0.0217   1.0000   0.0883
 -11.750  -0.4182   0.15248   0.14497  -0.0208   1.0000   0.0858
 -12.000  -0.4228   0.15528   0.14774  -0.0204   1.0000   0.0828
 -12.250  -0.4296   0.15876   0.15120  -0.0203   1.0000   0.0801
 -12.500  -0.4495   0.16908   0.16154  -0.0218   1.0000   0.0772
 -12.750  -0.4459   0.16843   0.16082  -0.0202   1.0000   0.0768
 -13.000  -0.4453   0.16866   0.16099  -0.0186   1.0000   0.0759
 -13.250  -0.4475   0.16994   0.16223  -0.0173   1.0000   0.0737
 -13.500  -0.4523   0.17245   0.16471  -0.0164   1.0000   0.0712
 -13.750  -0.4583   0.17547   0.16771  -0.0159   1.0000   0.0682
 -14.000  -0.4667   0.17978   0.17202  -0.0158   1.0000   0.0656
 -14.250  -0.4848   0.19064   0.18289  -0.0169   1.0000   0.0637
 -14.500  -0.4837   0.19011   0.18229  -0.0152   1.0000   0.0634
 -14.750  -0.4849   0.19025   0.18239  -0.0135   1.0000   0.0629
 -15.000  -0.4881   0.19118   0.18329  -0.0120   1.0000   0.0621
 -15.250  -0.4930   0.19307   0.18515  -0.0106   1.0000   0.0605
 -15.500  -0.4989   0.19564   0.18769  -0.0095   1.0000   0.0587
 -15.750  -0.5053   0.19841   0.19045  -0.0085   1.0000   0.0570
 -16.000  -0.5119   0.20140   0.19342  -0.0075   1.0000   0.0552
 -16.250  -0.5189   0.20459   0.19660  -0.0067   1.0000   0.0536
 -16.500  -0.5270   0.20876   0.20077  -0.0062   1.0000   0.0520
 -16.750  -0.5478   0.22424   0.21634  -0.0076   1.0000   0.0503
 -17.000  -0.5493   0.22371   0.21577  -0.0058   1.0000   0.0502
 -17.250  -0.5513   0.22289   0.21491  -0.0039   1.0000   0.0499
 -17.500  -0.5552   0.22308   0.21506  -0.0020   1.0000   0.0496
 -17.750  -0.5600   0.22360   0.21556  -0.0001   1.0000   0.0490
 -18.000  -0.5663   0.22528   0.21723   0.0015   1.0000   0.0483
 -18.250  -0.5731   0.22749   0.21941   0.0031   1.0000   0.0472
 -18.500  -0.5801   0.23002   0.22194   0.0045   1.0000   0.0461
 -18.750  -0.5873   0.23274   0.22464   0.0059   1.0000   0.0447
 -19.000  -0.5945   0.23547   0.22737   0.0073   1.0000   0.0437
 -19.250  -0.6019   0.23831   0.23019   0.0087   1.0000   0.0426
 -19.500  -0.6092   0.24121   0.23309   0.0100   1.0000   0.0414
 -19.750  -0.6167   0.24416   0.23604   0.0113   1.0000   0.0405
 -20.000  -0.6243   0.24754   0.23942   0.0125   1.0000   0.0394
