  
       XFOIL         Version 6.99
  
 Calculated polar for: AH 85-L-120/17                                  
  
 1 1 Reynolds number fixed          Mach number fixed         
  
 xtrf =   1.000 (top)        1.000 (bottom)  
 Mach =   0.000     Re =     0.050 e 6     Ncrit =   9.000
  
   alpha    CL        CD       CDp       CM     Top_Xtr  Bot_Xtr
  ------ -------- --------- --------- -------- -------- --------
   0.000   0.0000   0.02862   0.01717   0.0000   1.0000   1.0000
   0.250   0.0062   0.02863   0.01717   0.0025   1.0000   1.0000
   0.500   0.0124   0.02866   0.01722   0.0051   1.0000   1.0000
   0.750   0.0184   0.02871   0.01728   0.0076   1.0000   1.0000
   1.000   0.0244   0.02878   0.01737   0.0101   1.0000   1.0000
   1.250   0.0303   0.02887   0.01749   0.0127   1.0000   1.0000
   1.500   0.0360   0.02897   0.01764   0.0152   1.0000   1.0000
   1.750   0.0414   0.02910   0.01780   0.0178   1.0000   1.0000
   2.000   0.0467   0.02924   0.01802   0.0203   1.0000   1.0000
   2.250   0.0517   0.02941   0.01823   0.0229   1.0000   1.0000
   2.500   0.0563   0.02959   0.01847   0.0254   1.0000   1.0000
   2.750   0.0607   0.02978   0.01872   0.0280   1.0000   1.0000
   3.000   0.0647   0.03000   0.01900   0.0306   1.0000   1.0000
   3.250   0.0684   0.03023   0.01930   0.0331   1.0000   1.0000
   3.500   0.0722   0.03050   0.01964   0.0356   1.0000   1.0000
   3.750   0.0760   0.03080   0.02003   0.0379   1.0000   1.0000
   4.000   0.0805   0.03117   0.02048   0.0401   1.0000   1.0000
   4.250   0.0899   0.03173   0.02117   0.0411   0.9988   1.0000
   4.500   0.1795   0.03452   0.02444   0.0268   0.9658   1.0000
   4.750   0.2544   0.03643   0.02687   0.0164   0.9289   1.0000
   5.000   0.3373   0.03784   0.02889   0.0062   0.8855   1.0000
   5.250   0.6288   0.02931   0.01829  -0.0070   0.1588   1.0000
   5.500   0.6721   0.03138   0.02020  -0.0082   0.1301   1.0000
   5.750   0.7099   0.03337   0.02223  -0.0090   0.1174   1.0000
   6.000   0.7413   0.03593   0.02476  -0.0091   0.1081   1.0000
   6.250   0.7645   0.03825   0.02756  -0.0074   0.1061   1.0000
   6.500   0.7832   0.04080   0.03060  -0.0053   0.1052   1.0000
   6.750   0.7958   0.04337   0.03363  -0.0024   0.1035   1.0000
   7.000   0.8051   0.04587   0.03654   0.0006   0.1027   1.0000
   7.250   0.8104   0.04855   0.03962   0.0041   0.1025   1.0000
   7.500   0.8121   0.05146   0.04292   0.0079   0.1038   1.0000
   7.750   0.8135   0.05476   0.04650   0.0116   0.1063   1.0000
   8.000   0.8182   0.05814   0.05008   0.0146   0.1094   1.0000
   8.250   0.7897   0.06037   0.05297   0.0220   0.1150   1.0000
   8.500   0.7805   0.06367   0.05646   0.0262   0.1194   1.0000
   8.500   0.7805   0.06367   0.05646   0.0262   0.1195   1.0000
   8.600   0.7969   0.06623   0.05891   0.0254   0.1228   1.0000
   8.700   0.7739   0.06613   0.05909   0.0294   0.1245   1.0000
   9.000   0.7676   0.07193   0.06507   0.0327   0.1368   1.0000
   9.250   0.7222   0.07331   0.06668   0.0385   0.1391   1.0000
   9.500   0.7011   0.07808   0.07150   0.0407   0.1490   1.0000
   9.750   0.6561   0.08140   0.07485   0.0428   0.1535   1.0000
  10.000   0.6223   0.09170   0.08514   0.0370   0.1935   1.0000
  10.250   0.5063   0.10984   0.10284   0.0118   0.3412   1.0000
  10.500   0.5162   0.11438   0.10737   0.0113   0.3382   1.0000
  11.000   0.5104   0.12098   0.11387   0.0108   0.3170   1.0000
  10.750   0.5091   0.11724   0.11016   0.0110   0.3269   1.0000
  10.850   0.5192   0.11946   0.11243   0.0111   0.3239   1.0000
  10.950   0.5339   0.12224   0.11523   0.0112   0.3222   1.0000
  11.250   0.5219   0.12526   0.11816   0.0109   0.3060   1.0000
  11.500   0.5386   0.12972   0.12263   0.0114   0.2930   1.0000
  11.750   0.5456   0.13353   0.12642   0.0117   0.2788   1.0000
  12.000   0.5344   0.13549   0.12832   0.0108   0.2668   1.0000
  12.250   0.5296   0.13854   0.13130   0.0097   0.2590   1.0000
  12.500   0.5510   0.14410   0.13689   0.0102   0.2496   1.0000
  12.750   0.5424   0.14607   0.13881   0.0090   0.2388   1.0000
  13.000   0.5433   0.14962   0.14232   0.0079   0.2322   1.0000
  13.250   0.5607   0.15430   0.14707   0.0082   0.2225   1.0000
  13.500   0.5499   0.15624   0.14892   0.0062   0.2166   1.0000
  13.750   0.5761   0.16292   0.15565   0.0070   0.2069   1.0000
  14.000   0.5590   0.16323   0.15586   0.0046   0.1982   1.0000
  14.250   0.5795   0.16933   0.16199   0.0047   0.1923   1.0000
  14.500   0.5681   0.16988   0.16248   0.0023   0.1856   1.0000
  14.750   0.5892   0.17628   0.16890   0.0026   0.1780   1.0000
  15.000   0.5787   0.17672   0.16927   0.0000   0.1713   1.0000
  15.250   0.6084   0.18502   0.17765   0.0011   0.1644   1.0000
  15.500   0.5913   0.18389   0.17642  -0.0024   0.1607   1.0000
  15.750   0.5991   0.18727   0.17980  -0.0035   0.1538   1.0000
  16.000   0.6196   0.19455   0.18710  -0.0034   0.1500   1.0000
  16.250   0.6089   0.19387   0.18634  -0.0068   0.1462   1.0000
  16.500   0.6161   0.19709   0.18956  -0.0081   0.1407   1.0000
  16.750   0.6397   0.20579   0.19835  -0.0075   0.1361   1.0000
  17.000   0.6306   0.20457   0.19705  -0.0111   0.1340   1.0000
  17.250   0.6344   0.20687   0.19933  -0.0131   0.1289   1.0000
  17.500   0.6486   0.21197   0.20446  -0.0135   0.1240   1.0000
  17.750   0.6603   0.21781   0.21029  -0.0146   0.1219   1.0000
  18.000   0.6569   0.21734   0.20976  -0.0180   0.1194   1.0000
  18.250   0.6631   0.22022   0.21263  -0.0198   0.1134   1.0000
  18.500   0.6747   0.22443   0.21687  -0.0208   0.1107   1.0000
  18.750   0.6865   0.23060   0.22303  -0.0217   0.1079   1.0000
  19.000   0.6865   0.23057   0.22296  -0.0250   0.1061   1.0000
  19.250   0.6922   0.23284   0.22522  -0.0273   0.1008   1.0000
  19.500   0.7030   0.23692   0.22931  -0.0283   0.0973   1.0000
  19.750   0.7222   0.24706   0.23949  -0.0280   0.0947   1.0000
  20.000   0.7198   0.24511   0.23748  -0.0318   0.0938   1.0000
   0.000   0.0000   0.02862   0.01717   0.0000   1.0000   1.0000
  -0.250  -0.0062   0.02863   0.01718  -0.0025   1.0000   1.0000
  -0.500  -0.0124   0.02866   0.01722  -0.0051   1.0000   1.0000
  -0.750  -0.0184   0.02871   0.01728  -0.0076   1.0000   1.0000
  -1.000  -0.0245   0.02878   0.01737  -0.0101   1.0000   1.0000
  -1.250  -0.0303   0.02887   0.01750  -0.0127   1.0000   1.0000
  -1.500  -0.0359   0.02898   0.01765  -0.0152   1.0000   1.0000
  -1.750  -0.0415   0.02911   0.01781  -0.0178   1.0000   1.0000
  -2.000  -0.0467   0.02925   0.01802  -0.0203   1.0000   1.0000
  -2.250  -0.0517   0.02942   0.01824  -0.0229   1.0000   1.0000
  -2.500  -0.0563   0.02960   0.01848  -0.0254   1.0000   1.0000
  -2.750  -0.0607   0.02980   0.01874  -0.0280   1.0000   1.0000
  -3.000  -0.0647   0.03002   0.01901  -0.0305   1.0000   1.0000
  -3.250  -0.0684   0.03026   0.01935  -0.0331   1.0000   1.0000
  -3.500  -0.0721   0.03053   0.01968  -0.0356   1.0000   1.0000
  -3.750  -0.0760   0.03083   0.02006  -0.0379   1.0000   1.0000
  -4.000  -0.0804   0.03120   0.02051  -0.0401   1.0000   1.0000
  -4.250  -0.0917   0.03181   0.02127  -0.0407   1.0000   0.9982
  -4.500  -0.1798   0.03456   0.02448  -0.0267   1.0000   0.9657
  -4.750  -0.2530   0.03646   0.02690  -0.0166   1.0000   0.9295
  -5.000  -0.3400   0.03788   0.02895  -0.0058   1.0000   0.8846
  -5.250  -0.6297   0.02932   0.01830   0.0071   1.0000   0.1605
  -5.500  -0.6721   0.03135   0.02017   0.0083   1.0000   0.1311
  -5.750  -0.7099   0.03342   0.02228   0.0089   1.0000   0.1163
  -6.000  -0.7413   0.03594   0.02478   0.0091   1.0000   0.1080
  -6.250  -0.7646   0.03825   0.02756   0.0074   1.0000   0.1061
  -6.500  -0.7828   0.04079   0.03057   0.0052   1.0000   0.1047
  -6.750  -0.7961   0.04324   0.03348   0.0026   1.0000   0.1036
  -7.000  -0.8050   0.04580   0.03646  -0.0006   1.0000   0.1024
  -7.250  -0.8103   0.04856   0.03963  -0.0041   1.0000   0.1021
  -7.500  -0.8118   0.05157   0.04304  -0.0080   1.0000   0.1038
  -7.750  -0.8140   0.05473   0.04646  -0.0115   1.0000   0.1064
  -8.000  -0.8170   0.05791   0.04989  -0.0148   1.0000   0.1096
  -8.250  -0.7905   0.06028   0.05288  -0.0219   1.0000   0.1149
  -8.500  -0.7815   0.06364   0.05642  -0.0261   1.0000   0.1195
  -8.750  -0.7672   0.06644   0.05947  -0.0306   1.0000   0.1251
  -9.000  -0.7351   0.06956   0.06281  -0.0359   1.0000   0.1308
  -9.250  -0.7210   0.07331   0.06669  -0.0386   1.0000   0.1392
  -9.500  -0.6827   0.07624   0.06967  -0.0423   1.0000   0.1422
  -9.750  -0.6550   0.08144   0.07489  -0.0428   1.0000   0.1535
 -10.000  -0.6187   0.08810   0.08149  -0.0398   1.0000   0.1674
 -10.250  -0.5048   0.10992   0.10292  -0.0119   1.0000   0.3413
 -10.500  -0.5149   0.11422   0.10723  -0.0114   1.0000   0.3383
 -11.000  -0.5113   0.12100   0.11390  -0.0109   1.0000   0.3184
 -11.250  -0.5159   0.12475   0.11762  -0.0110   1.0000   0.3045
 -11.000  -0.5113   0.12100   0.11390  -0.0109   1.0000   0.3184
 -11.100  -0.5112   0.12217   0.11506  -0.0109   1.0000   0.3131
 -11.200  -0.5366   0.12562   0.11858  -0.0117   1.0000   0.3077
 -11.500  -0.5277   0.12880   0.12168  -0.0113   1.0000   0.2920
 -11.750  -0.5433   0.13333   0.12623  -0.0118   1.0000   0.2787
 -12.000  -0.5341   0.13551   0.12835  -0.0110   1.0000   0.2666
 -12.250  -0.5279   0.13845   0.13122  -0.0100   1.0000   0.2575
 -12.500  -0.5544   0.14429   0.13710  -0.0106   1.0000   0.2499
 -12.750  -0.5413   0.14596   0.13869  -0.0092   1.0000   0.2388
 -13.000  -0.5426   0.14960   0.14231  -0.0082   1.0000   0.2325
 -13.250  -0.5594   0.15427   0.14704  -0.0084   1.0000   0.2225
 -13.500  -0.5485   0.15622   0.14891  -0.0064   1.0000   0.2166
 -13.750  -0.5810   0.16363   0.15639  -0.0077   1.0000   0.2072
 -14.000  -0.5568   0.16307   0.15572  -0.0045   1.0000   0.2015
 -14.250  -0.5826   0.16988   0.16257  -0.0053   1.0000   0.1926
 -14.500  -0.5669   0.16991   0.16252  -0.0025   1.0000   0.1875
 -14.750  -0.5910   0.17675   0.16939  -0.0031   1.0000   0.1783
 -15.000  -0.5774   0.17659   0.16916  -0.0002   1.0000   0.1730
 -15.250  -0.6052   0.18461   0.17722  -0.0012   1.0000   0.1643
 -15.500  -0.5904   0.18379   0.17633   0.0021   1.0000   0.1610
 -15.750  -0.5961   0.18672   0.17924   0.0035   1.0000   0.1549
 -16.000  -0.6177   0.19428   0.18684   0.0031   1.0000   0.1500
 -16.250  -0.6077   0.19365   0.18613   0.0064   1.0000   0.1464
 -16.500  -0.6152   0.19697   0.18945   0.0077   1.0000   0.1402
 -16.750  -0.6383   0.20553   0.19809   0.0072   1.0000   0.1361
 -17.000  -0.6281   0.20409   0.19656   0.0109   1.0000   0.1335
 -17.250  -0.6330   0.20661   0.19908   0.0128   1.0000   0.1284
 -17.500  -0.6481   0.21193   0.20443   0.0130   1.0000   0.1238
 -17.750  -0.6567   0.21680   0.20927   0.0145   1.0000   0.1217
 -18.000  -0.6547   0.21681   0.20923   0.0177   1.0000   0.1189
 -18.250  -0.6614   0.21959   0.21200   0.0195   1.0000   0.1139
 -18.500  -0.6874   0.23091   0.22338   0.0182   1.0000   0.1085
 -18.750  -0.6837   0.22954   0.22196   0.0216   1.0000   0.1078
 -19.000  -0.6835   0.22943   0.22181   0.0249   1.0000   0.1047
 -19.250  -0.6908   0.23224   0.22462   0.0268   1.0000   0.1003
 -19.500  -0.7048   0.23792   0.23033   0.0272   1.0000   0.0962
 -19.750  -0.7175   0.24491   0.23730   0.0281   1.0000   0.0946
