  
       XFOIL         Version 6.99
  
 Calculated polar for: E178  (8.69%)                                   
  
 1 1 Reynolds number fixed          Mach number fixed         
  
 xtrf =   1.000 (top)        1.000 (bottom)  
 Mach =   0.000     Re =     0.050 e 6     Ncrit =   9.000
  
   alpha    CL        CD       CDp       CM     Top_Xtr  Bot_Xtr
  ------ -------- --------- --------- -------- -------- --------
   0.000   0.1099   0.02342   0.01342  -0.0465   0.9504   1.0000
   0.250   0.1501   0.02425   0.01400  -0.0499   0.9414   1.0000
   0.500   0.1773   0.02495   0.01453  -0.0509   0.9320   1.0000
   0.750   0.2083   0.02573   0.01518  -0.0526   0.9229   1.0000
   1.000   0.2469   0.02660   0.01593  -0.0556   0.9143   1.0000
   1.250   0.2688   0.02736   0.01659  -0.0557   0.9047   1.0000
   1.500   0.2969   0.02822   0.01737  -0.0569   0.8958   1.0000
   1.750   0.3331   0.02913   0.01823  -0.0593   0.8869   1.0000
   2.000   0.3517   0.03000   0.01907  -0.0589   0.8772   1.0000
   2.250   0.3779   0.03094   0.02000  -0.0596   0.8677   1.0000
   2.500   0.4132   0.03191   0.02098  -0.0617   0.8582   1.0000
   2.750   0.4331   0.03288   0.02196  -0.0615   0.8477   1.0000
   3.000   0.4550   0.03389   0.02301  -0.0615   0.8369   1.0000
   3.250   0.4812   0.03493   0.02413  -0.0622   0.8258   1.0000
   3.500   0.5104   0.03595   0.02522  -0.0631   0.8140   1.0000
   3.750   0.5405   0.03695   0.02632  -0.0640   0.8015   1.0000
   4.000   0.5703   0.03794   0.02743  -0.0648   0.7884   1.0000
   4.250   0.5963   0.03895   0.02862  -0.0650   0.7742   1.0000
   4.500   0.6189   0.03999   0.02979  -0.0646   0.7589   1.0000
   4.750   0.6417   0.04101   0.03095  -0.0641   0.7423   1.0000
   5.000   0.6721   0.04179   0.03193  -0.0642   0.7245   1.0000
   5.250   0.7218   0.04174   0.03225  -0.0653   0.7059   1.0000
   5.500   0.7361   0.04279   0.03346  -0.0635   0.6848   1.0000
   5.750   0.7891   0.04159   0.03265  -0.0628   0.6641   1.0000
   6.000   0.8125   0.04164   0.03295  -0.0604   0.6395   1.0000
   6.250   0.8478   0.04039   0.03209  -0.0575   0.6139   1.0000
   6.500   0.8891   0.03785   0.02993  -0.0536   0.5861   1.0000
   6.750   0.9356   0.03368   0.02610  -0.0483   0.5540   1.0000
   7.000   0.9681   0.03035   0.02301  -0.0429   0.5093   1.0000
   7.250   0.9918   0.02752   0.02023  -0.0371   0.4384   1.0000
   7.500   1.0008   0.02729   0.01920  -0.0315   0.3339   1.0000
   7.750   1.0033   0.02979   0.02073  -0.0277   0.2488   1.0000
   8.000   1.0094   0.03276   0.02315  -0.0249   0.1870   1.0000
   8.250   1.0233   0.03595   0.02578  -0.0229   0.1413   1.0000
   8.500   1.0433   0.03918   0.02894  -0.0213   0.1128   1.0000
   8.750   1.0659   0.04256   0.03250  -0.0201   0.0975   1.0000
   9.000   1.0889   0.04637   0.03636  -0.0193   0.0884   1.0000
   9.250   1.1003   0.04971   0.04031  -0.0176   0.0829   1.0000
   9.500   1.1173   0.05350   0.04430  -0.0167   0.0783   1.0000
   9.750   1.1290   0.05839   0.04950  -0.0156   0.0772   1.0000
  10.000   1.1328   0.06308   0.05463  -0.0142   0.0771   1.0000
  10.250   1.1260   0.06690   0.05901  -0.0122   0.0780   1.0000
  10.500   1.1021   0.07108   0.06374  -0.0103   0.0795   1.0000
  10.750   1.0756   0.07529   0.06828  -0.0088   0.0809   1.0000
  11.000   1.0481   0.08002   0.07322  -0.0090   0.0823   1.0000
  11.250   1.0201   0.08561   0.07890  -0.0110   0.0837   1.0000
  11.500   0.9936   0.09210   0.08550  -0.0143   0.0853   1.0000
  11.750   0.9714   0.09924   0.09269  -0.0183   0.0869   1.0000
  12.000   0.9568   0.10646   0.09993  -0.0217   0.0883   1.0000
  12.250   0.9578   0.11251   0.10597  -0.0229   0.0895   1.0000
  12.500   0.9064   0.12922   0.12263  -0.0368   0.1017   1.0000
  12.500   0.9040   0.13007   0.12350  -0.0378   0.1035   1.0000
  12.600   0.9054   0.13220   0.12562  -0.0381   0.1031   1.0000
  12.700   0.9089   0.13399   0.12743  -0.0379   0.1026   1.0000
  13.000   0.6762   0.15505   0.14870  -0.0542   0.2629   1.0000
  13.250   0.6674   0.15684   0.15050  -0.0554   0.2552   1.0000
  13.500   0.6777   0.16193   0.15562  -0.0558   0.2495   1.0000
  13.750   0.6715   0.16355   0.15727  -0.0570   0.2401   1.0000
  14.000   0.6705   0.16649   0.16021  -0.0581   0.2324   1.0000
  14.250   0.6809   0.17093   0.16467  -0.0583   0.2219   1.0000
  14.500   0.6752   0.17259   0.16634  -0.0598   0.2146   1.0000
  14.750   0.6913   0.17865   0.17248  -0.0600   0.2091   1.0000
  15.000   0.6791   0.17900   0.17282  -0.0622   0.2036   1.0000
  15.250   0.6988   0.18554   0.17941  -0.0619   0.1957   1.0000
  15.500   0.6852   0.18544   0.17930  -0.0644   0.1911   1.0000
  15.750   0.7010   0.19115   0.18504  -0.0643   0.1818   1.0000
  16.000   0.6917   0.19177   0.18565  -0.0668   0.1774   1.0000
  16.250   0.7090   0.19769   0.19163  -0.0665   0.1695   1.0000
  16.500   0.7025   0.19922   0.19314  -0.0688   0.1670   1.0000
  16.750   0.7018   0.20142   0.19535  -0.0706   0.1612   1.0000
  17.000   0.7226   0.20894   0.20294  -0.0700   0.1557   1.0000
  17.250   0.7132   0.20925   0.20321  -0.0727   0.1538   1.0000
  17.500   0.7122   0.21136   0.20534  -0.0747   0.1484   1.0000
  17.750   0.7246   0.21649   0.21052  -0.0749   0.1432   1.0000
  18.000   0.7259   0.21979   0.21381  -0.0766   0.1409   1.0000
  18.250   0.7236   0.22150   0.21553  -0.0789   0.1370   1.0000
  18.500   0.7343   0.22623   0.22031  -0.0792   0.1301   1.0000
  18.750   0.7383   0.23039   0.22446  -0.0806   0.1279   1.0000
  19.000   0.7353   0.23180   0.22589  -0.0831   0.1243   1.0000
  19.250   0.7404   0.23526   0.22942  -0.0843   0.1192   1.0000
  19.500   0.7579   0.24365   0.23785  -0.0838   0.1155   1.0000
  19.750   0.7519   0.24382   0.23802  -0.0867   0.1145   1.0000
  20.000   0.7507   0.24588   0.24010  -0.0890   0.1110   1.0000
   0.000   0.1099   0.02342   0.01342  -0.0465   0.9504   1.0000
  -0.250   0.0755   0.02268   0.01293  -0.0441   0.9595   1.0000
  -0.500   0.0419   0.02202   0.01254  -0.0418   0.9694   1.0000
  -0.750  -0.0001   0.02121   0.01210  -0.0380   0.9783   1.0000
  -1.000  -0.0405   0.02046   0.01183  -0.0344   0.9877   1.0000
  -1.250  -0.0823   0.01973   0.01165  -0.0305   0.9974   1.0000
  -1.500  -0.1078   0.01926   0.01176  -0.0297   1.0000   1.0000
  -1.750  -0.1414   0.02228   0.01279  -0.0307   1.0000   0.3283
  -2.000  -0.1670   0.02421   0.01385  -0.0308   1.0000   0.1922
  -2.250  -0.1906   0.02536   0.01501  -0.0316   1.0000   0.1587
  -2.500  -0.2141   0.02663   0.01644  -0.0323   1.0000   0.1456
  -2.750  -0.2365   0.02798   0.01798  -0.0329   1.0000   0.1362
  -3.000  -0.2571   0.02940   0.01946  -0.0335   1.0000   0.1256
  -3.250  -0.2799   0.03111   0.02172  -0.0342   1.0000   0.1235
  -3.500  -0.3014   0.03330   0.02442  -0.0348   1.0000   0.1236
  -3.750  -0.3208   0.03581   0.02727  -0.0355   1.0000   0.1251
  -4.000  -0.3425   0.03911   0.03154  -0.0355   1.0000   0.1342
  -4.250  -0.3585   0.04215   0.03492  -0.0360   1.0000   0.1412
  -4.500  -0.3756   0.04705   0.04059  -0.0344   1.0000   0.1631
  -4.500  -0.3756   0.04705   0.04059  -0.0344   1.0000   0.1631
  -4.600  -0.3793   0.04831   0.04185  -0.0350   1.0000   0.1656
  -5.500  -0.3854   0.06948   0.06409   0.0018   1.0000   0.4332
  -5.750  -0.3825   0.07138   0.06589  -0.0003   1.0000   0.3995
  -6.000  -0.4046   0.07523   0.06972  -0.0049   1.0000   0.3642
  -6.250  -0.4021   0.07735   0.07172  -0.0051   1.0000   0.3385
  -6.500  -0.4100   0.08079   0.07508  -0.0059   1.0000   0.3197
  -6.750  -0.4065   0.08312   0.07729  -0.0056   1.0000   0.3015
  -7.000  -0.4099   0.08608   0.08016  -0.0058   1.0000   0.2856
  -7.250  -0.4136   0.08914   0.08313  -0.0059   1.0000   0.2715
  -7.500  -0.4174   0.09226   0.08617  -0.0056   1.0000   0.2591
  -7.750  -0.4233   0.09572   0.08955  -0.0054   1.0000   0.2473
  -8.000  -0.4373   0.10000   0.09381  -0.0059   1.0000   0.2360
  -8.250  -0.4505   0.10443   0.09821  -0.0064   1.0000   0.2229
  -8.500  -0.4349   0.10511   0.09873  -0.0033   1.0000   0.2161
  -8.750  -0.4424   0.10890   0.10248  -0.0029   1.0000   0.2060
  -9.000  -0.4590   0.11379   0.10736  -0.0037   1.0000   0.1945
  -9.250  -0.4494   0.11499   0.10845  -0.0009   1.0000   0.1874
  -9.500  -0.4616   0.11957   0.11305  -0.0009   1.0000   0.1796
  -9.750  -0.4628   0.12212   0.11554   0.0005   1.0000   0.1704
 -10.000  -0.4731   0.12676   0.12015   0.0011   1.0000   0.1660
 -10.250  -0.4691   0.12851   0.12183   0.0035   1.0000   0.1599
 -10.500  -0.4942   0.13577   0.12912   0.0020   1.0000   0.1531
 -10.750  -0.4822   0.13598   0.12922   0.0056   1.0000   0.1504
 -11.000  -0.4859   0.13888   0.13209   0.0071   1.0000   0.1444
 -11.250  -0.5088   0.14630   0.13952   0.0061   1.0000   0.1391
 -11.500  -0.4990   0.14651   0.13965   0.0095   1.0000   0.1368
 -11.750  -0.5022   0.14920   0.14230   0.0113   1.0000   0.1315
 -12.000  -0.5322   0.15868   0.15183   0.0093   1.0000   0.1255
 -12.250  -0.5230   0.15848   0.15155   0.0128   1.0000   0.1246
 -12.500  -0.5208   0.15972   0.15273   0.0156   1.0000   0.1211
 -12.750  -0.5279   0.16304   0.15604   0.0169   1.0000   0.1164
 -13.000  -0.5516   0.17185   0.16487   0.0159   1.0000   0.1115
 -13.250  -0.5459   0.17166   0.16461   0.0192   1.0000   0.1104
 -13.500  -0.5471   0.17320   0.16611   0.0217   1.0000   0.1066
 -13.750  -0.5556   0.17672   0.16967   0.0230   1.0000   0.1020
 -14.000  -0.5803   0.18677   0.17975   0.0219   1.0000   0.0979
 -14.250  -0.5763   0.18622   0.17914   0.0251   1.0000   0.0972
 -14.500  -0.5776   0.18711   0.17999   0.0280   1.0000   0.0951
 -14.750  -0.5838   0.18983   0.18269   0.0300   1.0000   0.0917
 -15.000  -0.5927   0.19331   0.18616   0.0314   1.0000   0.0886
 -15.250  -0.6065   0.19894   0.19181   0.0319   1.0000   0.0857
 -15.500  -0.6225   0.20710   0.19996   0.0324   1.0000   0.0842
 -15.750  -0.6215   0.20626   0.19906   0.0357   1.0000   0.0835
 -16.000  -0.6251   0.20715   0.19991   0.0386   1.0000   0.0817
 -16.250  -0.6323   0.20969   0.20244   0.0407   1.0000   0.0793
 -16.500  -0.6408   0.21282   0.20557   0.0426   1.0000   0.0769
 -16.750  -0.6505   0.21652   0.20926   0.0441   1.0000   0.0743
 -17.000  -0.6637   0.22245   0.21521   0.0447   1.0000   0.0721
 -17.250  -0.6800   0.23197   0.22471   0.0452   1.0000   0.0708
 -17.500  -0.6823   0.23126   0.22397   0.0482   1.0000   0.0705
 -17.750  -0.6862   0.23113   0.22381   0.0513   1.0000   0.0697
 -18.000  -0.6929   0.23267   0.22538   0.0540   1.0000   0.0681
 -18.250  -0.7011   0.23532   0.22802   0.0563   1.0000   0.0661
 -18.500  -0.7098   0.23828   0.23097   0.0583   1.0000   0.0643
 -18.750  -0.7190   0.24152   0.23421   0.0602   1.0000   0.0624
 -19.000  -0.7288   0.24528   0.23798   0.0618   1.0000   0.0604
 -19.250  -0.7414   0.25184   0.24456   0.0625   1.0000   0.0587
 -19.500  -0.7566   0.26254   0.25525   0.0630   1.0000   0.0576
 -19.750  -0.7602   0.26094   0.25362   0.0663   1.0000   0.0574
 -20.000  -0.7649   0.25989   0.25254   0.0696   1.0000   0.0567
