  
       XFOIL         Version 6.99
  
 Calculated polar for: S1091                                           
  
 1 1 Reynolds number fixed          Mach number fixed         
  
 xtrf =   1.000 (top)        1.000 (bottom)  
 Mach =   0.000     Re =     0.050 e 6     Ncrit =   9.000
  
   alpha    CL        CD       CDp       CM     Top_Xtr  Bot_Xtr
  ------ -------- --------- --------- -------- -------- --------
  -0.150   0.0231   0.04231   0.03711  -0.0393   1.0000   0.5255
  -0.050   0.0278   0.04111   0.03594  -0.0383   1.0000   0.5533
   0.250   0.0514   0.03789   0.03278  -0.0378   1.0000   0.6133
   0.500   0.0950   0.03608   0.03085  -0.0436   1.0000   0.6372
   0.750   0.3039   0.03597   0.02784  -0.0862   1.0000   0.1396
   1.000   0.3365   0.03500   0.02628  -0.0877   1.0000   0.1351
   1.250   0.3968   0.03390   0.02452  -0.0935   0.9892   0.1366
   1.500   0.4547   0.03340   0.02351  -0.0989   0.9767   0.1657
   1.750   0.5092   0.03262   0.02294  -0.1035   0.9642   0.2948
   2.000   0.5595   0.03071   0.02197  -0.1072   0.9506   1.0000
   2.250   0.6096   0.03156   0.02225  -0.1117   0.9337   1.0000
   2.500   0.6518   0.03226   0.02265  -0.1148   0.9151   1.0000
   2.750   0.6958   0.03282   0.02302  -0.1179   0.8959   1.0000
   3.000   0.7467   0.03315   0.02321  -0.1218   0.8778   1.0000
   3.250   0.7837   0.03355   0.02355  -0.1233   0.8564   1.0000
   3.500   0.8337   0.03348   0.02347  -0.1262   0.8367   1.0000
   3.750   0.8783   0.03332   0.02338  -0.1280   0.8154   1.0000
   4.000   0.9322   0.03250   0.02264  -0.1303   0.7945   1.0000
   4.250   0.9821   0.03157   0.02181  -0.1315   0.7718   1.0000
   4.500   1.0370   0.03003   0.02045  -0.1327   0.7487   1.0000
   4.750   1.0775   0.02905   0.01955  -0.1318   0.7209   1.0000
   5.000   1.1172   0.02800   0.01854  -0.1305   0.6906   1.0000
   5.250   1.1458   0.02755   0.01811  -0.1281   0.6559   1.0000
   5.500   1.1757   0.02696   0.01756  -0.1257   0.6189   1.0000
   5.750   1.1987   0.02677   0.01730  -0.1227   0.5777   1.0000
   6.000   1.2204   0.02668   0.01707  -0.1196   0.5331   1.0000
   6.250   1.2394   0.02689   0.01705  -0.1163   0.4843   1.0000
   6.500   1.2571   0.02759   0.01745  -0.1132   0.4321   1.0000
   6.750   1.2732   0.02887   0.01837  -0.1104   0.3807   1.0000
   7.000   1.2905   0.03045   0.01964  -0.1080   0.3360   1.0000
   7.250   1.3100   0.03211   0.02095  -0.1062   0.3001   1.0000
   7.500   1.3307   0.03390   0.02257  -0.1048   0.2719   1.0000
   7.750   1.3513   0.03596   0.02486  -0.1034   0.2511   1.0000
   8.000   1.3732   0.03800   0.02695  -0.1022   0.2344   1.0000
   8.250   1.3935   0.04002   0.02908  -0.1010   0.2201   1.0000
   8.500   1.4135   0.04238   0.03166  -0.0998   0.2095   1.0000
   8.750   1.4387   0.04493   0.03421  -0.0994   0.2014   1.0000
   9.000   1.4494   0.04813   0.03811  -0.0971   0.1961   1.0000
   9.250   1.4647   0.05121   0.04155  -0.0955   0.1911   1.0000
   9.500   1.4797   0.05441   0.04498  -0.0941   0.1859   1.0000
   9.750   1.4783   0.05818   0.04938  -0.0911   0.1819   1.0000
  10.000   1.4824   0.06173   0.05330  -0.0888   0.1777   1.0000
  10.250   1.4878   0.06574   0.05762  -0.0870   0.1755   1.0000
  10.500   1.5002   0.07019   0.06223  -0.0860   0.1734   1.0000
  10.750   1.4865   0.07542   0.06790  -0.0832   0.1733   1.0000
  10.750   1.4865   0.07542   0.06790  -0.0832   0.1733   1.0000
  11.000   1.4017   0.08281   0.07589  -0.0774   0.1780   1.0000
  11.100   1.3727   0.08597   0.07912  -0.0763   0.1796   1.0000
  11.200   1.3467   0.08950   0.08268  -0.0763   0.1812   1.0000
  11.500   1.2873   0.10161   0.09483  -0.0801   0.1850   1.0000
  11.750   1.2666   0.11055   0.10378  -0.0835   0.1870   1.0000
  11.750   1.2666   0.11055   0.10378  -0.0835   0.1870   1.0000
  12.250   1.0624   0.16758   0.16005  -0.1311   0.3402   1.0000
  12.500   1.0924   0.17325   0.16588  -0.1302   0.3293   1.0000
  12.750   1.0689   0.17485   0.16740  -0.1327   0.3213   1.0000
  13.000   1.0917   0.18066   0.17332  -0.1325   0.3143   1.0000
  13.250   1.0794   0.18255   0.17519  -0.1346   0.3059   1.0000
  13.250   1.0794   0.18256   0.17519  -0.1346   0.3059   1.0000
  13.350   1.0866   0.18451   0.17719  -0.1346   0.3033   1.0000
  13.450   1.0994   0.18749   0.18024  -0.1343   0.3013   1.0000
  13.750   1.0881   0.19028   0.18300  -0.1371   0.2936   1.0000
  14.000   1.1077   0.19579   0.18867  -0.1370   0.2873   1.0000
  14.250   1.1001   0.19818   0.19104  -0.1396   0.2819   1.0000
  14.500   1.1136   0.20264   0.19559  -0.1399   0.2738   1.0000
  14.750   1.1115   0.20550   0.19845  -0.1421   0.2674   1.0000
  15.000   1.1396   0.21317   0.20629  -0.1407   0.2576   1.0000
  15.250   1.1231   0.21248   0.20553  -0.1447   0.2513   1.0000
  15.500   1.1421   0.21842   0.21161  -0.1444   0.2445   1.0000
  15.750   1.1373   0.22040   0.21357  -0.1475   0.2401   1.0000
  16.000   1.1453   0.22397   0.21721  -0.1487   0.2325   1.0000
  16.250   1.1534   0.22866   0.22196  -0.1500   0.2276   1.0000
  16.500   1.1599   0.23153   0.22492  -0.1513   0.2177   1.0000
  16.750   1.1642   0.23526   0.22868  -0.1533   0.2128   1.0000
  17.000   1.1694   0.23811   0.23158  -0.1552   0.2053   1.0000
  17.250   1.1865   0.24576   0.23934  -0.1550   0.2007   1.0000
  17.500   1.1803   0.24519   0.23873  -0.1592   0.1948   1.0000
  17.750   1.1995   0.25315   0.24683  -0.1582   0.1868   1.0000
  18.000   1.1937   0.25228   0.24592  -0.1627   0.1809   1.0000
  18.250   1.2134   0.26041   0.25421  -0.1615   0.1740   1.0000
  18.500   1.2101   0.26094   0.25469  -0.1657   0.1712   1.0000
  18.750   1.2151   0.26334   0.25712  -0.1680   0.1637   1.0000
  19.000   1.2261   0.26924   0.26308  -0.1687   0.1583   1.0000
  19.250   1.2273   0.27019   0.26403  -0.1722   0.1520   1.0000
  19.500   1.2481   0.28117   0.27519  -0.1705   0.1456   1.0000
  19.750   1.2420   0.27821   0.27216  -0.1760   0.1428   1.0000
  20.000   1.2535   0.28317   0.27720  -0.1764   0.1337   1.0000
   0.050   0.0336   0.03998   0.03484  -0.0376   1.0000   0.5745
  -0.250   0.0196   0.04348   0.03822  -0.0406   1.0000   0.4972
  -0.700   0.0041   0.04805   0.04259  -0.0459   1.0000   0.3700
  -1.000  -0.0110   0.05123   0.04567  -0.0478   1.0000   0.3232
  -1.250  -0.0371   0.05302   0.04749  -0.0454   1.0000   0.2825
  -1.500  -0.0622   0.05531   0.04982  -0.0431   1.0000   0.2548
  -1.500  -0.0622   0.05531   0.04982  -0.0431   1.0000   0.2548
  -1.600  -0.0739   0.05625   0.05078  -0.0415   1.0000   0.2445
  -1.700  -0.0782   0.05734   0.05184  -0.0422   1.0000   0.2388
  -2.000  -0.1120   0.06011   0.05466  -0.0375   1.0000   0.2138
  -2.250  -0.1343   0.06256   0.05712  -0.0349   1.0000   0.1990
  -2.500  -0.1561   0.06509   0.05967  -0.0320   1.0000   0.1862
  -2.750  -0.1595   0.06840   0.06288  -0.0352   1.0000   0.1797
  -3.000  -0.1870   0.07026   0.06479  -0.0297   1.0000   0.1671
  -3.250  -0.2089   0.07258   0.06715  -0.0252   1.0000   0.1585
  -3.500  -0.2143   0.07548   0.06999  -0.0271   1.0000   0.1520
  -3.750  -0.2345   0.07746   0.07196  -0.0219   1.0000   0.1444
  -4.000  -0.2400   0.08014   0.07459  -0.0234   1.0000   0.1382
  -4.250  -0.2450   0.08345   0.07780  -0.0243   1.0000   0.1351
  -4.500  -0.2608   0.08428   0.07862  -0.0189   1.0000   0.1280
  -4.750  -0.2632   0.08752   0.08178  -0.0219   1.0000   0.1230
  -5.000  -0.2672   0.09096   0.08512  -0.0229   1.0000   0.1208
  -5.250  -0.2767   0.09104   0.08515  -0.0176   1.0000   0.1163
  -5.500  -0.2809   0.09314   0.08717  -0.0176   1.0000   0.1121
  -5.750  -0.2855   0.09720   0.09116  -0.0208   1.0000   0.1082
  -6.000  -0.2897   0.10157   0.09543  -0.0229   1.0000   0.1067
  -6.250  -0.2915   0.10098   0.09473  -0.0188   1.0000   0.1053
  -6.500  -0.2917   0.10191   0.09558  -0.0178   1.0000   0.1027
  -6.750  -0.2927   0.10373   0.09730  -0.0180   1.0000   0.0996
  -7.000  -0.2944   0.10601   0.09949  -0.0191   1.0000   0.0967
  -7.250  -0.3125   0.11384   0.10735  -0.0221   1.0000   0.0929
  -7.500  -0.3146   0.11621   0.10959  -0.0217   1.0000   0.0922
  -7.750  -0.3069   0.11573   0.10897  -0.0218   1.0000   0.0918
  -8.000  -0.3011   0.11560   0.10871  -0.0219   1.0000   0.0908
  -8.250  -0.3000   0.11646   0.10947  -0.0217   1.0000   0.0889
  -8.500  -0.3022   0.11836   0.11128  -0.0216   1.0000   0.0862
  -8.750  -0.3066   0.12070   0.11357  -0.0217   1.0000   0.0839
  -9.000  -0.3128   0.12381   0.11662  -0.0220   1.0000   0.0813
  -9.250  -0.3400   0.13578   0.12864  -0.0240   1.0000   0.0782
  -9.500  -0.3366   0.13553   0.12828  -0.0233   1.0000   0.0780
  -9.750  -0.3329   0.13490   0.12754  -0.0222   1.0000   0.0775
 -10.000  -0.3332   0.13528   0.12785  -0.0212   1.0000   0.0768
 -10.250  -0.3352   0.13631   0.12884  -0.0202   1.0000   0.0751
 -10.500  -0.3397   0.13837   0.13085  -0.0196   1.0000   0.0734
 -10.750  -0.3449   0.14085   0.13328  -0.0190   1.0000   0.0713
 -11.000  -0.3508   0.14356   0.13596  -0.0186   1.0000   0.0694
 -11.250  -0.3574   0.14660   0.13896  -0.0183   1.0000   0.0676
 -11.500  -0.3666   0.15122   0.14356  -0.0185   1.0000   0.0656
 -11.750  -0.3872   0.16249   0.15483  -0.0198   1.0000   0.0640
 -12.000  -0.3863   0.16221   0.15449  -0.0184   1.0000   0.0638
 -12.250  -0.3869   0.16221   0.15442  -0.0171   1.0000   0.0636
 -12.500  -0.3888   0.16254   0.15470  -0.0157   1.0000   0.0630
 -12.750  -0.3926   0.16367   0.15579  -0.0144   1.0000   0.0621
 -13.000  -0.3980   0.16567   0.15775  -0.0134   1.0000   0.0608
 -13.250  -0.4040   0.16806   0.16010  -0.0124   1.0000   0.0595
 -13.500  -0.4103   0.17066   0.16268  -0.0115   1.0000   0.0581
 -13.750  -0.4169   0.17342   0.16545  -0.0107   1.0000   0.0566
 -14.000  -0.4237   0.17628   0.16828  -0.0099   1.0000   0.0552
 -14.250  -0.4309   0.17932   0.17131  -0.0092   1.0000   0.0540
 -14.500  -0.4390   0.18318   0.17516  -0.0087   1.0000   0.0525
 -14.500  -0.4390   0.18319   0.17516  -0.0087   1.0000   0.0525
 -14.600  -0.4426   0.18504   0.17700  -0.0085   1.0000   0.0521
 -14.700  -0.4477   0.18807   0.18005  -0.0087   1.0000   0.0515
 -15.000  -0.4644   0.19884   0.19078  -0.0087   1.0000   0.0506
 -15.250  -0.4661   0.19828   0.19018  -0.0070   1.0000   0.0504
 -15.500  -0.4690   0.19801   0.18987  -0.0053   1.0000   0.0501
 -15.750  -0.4739   0.19871   0.19054  -0.0037   1.0000   0.0498
 -16.000  -0.4797   0.19983   0.19163  -0.0020   1.0000   0.0491
 -16.250  -0.4865   0.20174   0.19352  -0.0006   1.0000   0.0483
 -16.500  -0.4936   0.20404   0.19581   0.0008   1.0000   0.0474
 -16.750  -0.5009   0.20657   0.19832   0.0021   1.0000   0.0464
 -17.000  -0.5084   0.20920   0.20098   0.0034   1.0000   0.0457
 -17.250  -0.5160   0.21188   0.20364   0.0047   1.0000   0.0447
 -17.500  -0.5236   0.21463   0.20638   0.0060   1.0000   0.0439
 -17.750  -0.5312   0.21738   0.20912   0.0073   1.0000   0.0431
 -18.000  -0.5390   0.22018   0.21191   0.0086   1.0000   0.0423
 -18.250  -0.5468   0.22311   0.21483   0.0099   1.0000   0.0415
 -18.500  -0.5547   0.22612   0.21783   0.0111   1.0000   0.0408
 -18.750  -0.5627   0.22945   0.22115   0.0123   1.0000   0.0401
 -19.000  -0.5711   0.23341   0.22511   0.0134   1.0000   0.0394
 -19.250  -0.5812   0.24032   0.23204   0.0140   1.0000   0.0387
 -19.250  -0.5812   0.24032   0.23204   0.0140   1.0000   0.0387
 -19.350  -0.5883   0.24720   0.23894   0.0137   1.0000   0.0383
 -20.000  -0.6068   0.25391   0.24562   0.0180   1.0000   0.0380
