  
       XFOIL         Version 6.99
  
 Calculated polar for: Fage & Collins 4                                
  
 1 1 Reynolds number fixed          Mach number fixed         
  
 xtrf =   1.000 (top)        1.000 (bottom)  
 Mach =   0.000     Re =     0.050 e 6     Ncrit =   9.000
  
   alpha    CL        CD       CDp       CM     Top_Xtr  Bot_Xtr
  ------ -------- --------- --------- -------- -------- --------
   0.000   0.0250   0.04891   0.03885  -0.0221   0.8170   0.1668
   0.250   0.0485   0.04845   0.03823  -0.0216   0.8034   0.1630
   0.500   0.0802   0.04812   0.03766  -0.0221   0.7902   0.1586
   0.750   0.1250   0.04775   0.03697  -0.0246   0.7770   0.1550
   1.000   0.2069   0.04704   0.03603  -0.0335   0.7631   0.1544
   1.250   0.2837   0.04601   0.03499  -0.0412   0.7499   0.1638
   1.500   0.3155   0.04617   0.03507  -0.0420   0.7348   0.1695
   1.750   0.3519   0.04611   0.03509  -0.0436   0.7199   0.1801
   2.000   0.3935   0.04598   0.03506  -0.0457   0.7057   0.1999
   2.250   0.6198   0.04016   0.03063  -0.0753   0.6967   1.0000
   2.500   0.6370   0.04089   0.03121  -0.0734   0.6806   1.0000
   2.750   0.6569   0.04152   0.03172  -0.0719   0.6650   1.0000
   3.000   0.6837   0.04188   0.03198  -0.0712   0.6507   1.0000
   3.250   0.7783   0.03885   0.02878  -0.0784   0.6386   1.0000
   3.500   0.8469   0.03682   0.02660  -0.0826   0.6209   1.0000
   3.750   0.8893   0.03591   0.02558  -0.0833   0.6016   1.0000
   4.000   0.9271   0.03528   0.02484  -0.0836   0.5828   1.0000
   4.250   0.9624   0.03492   0.02436  -0.0837   0.5653   1.0000
   4.500   0.9955   0.03467   0.02401  -0.0836   0.5483   1.0000
   4.750   1.0331   0.03444   0.02365  -0.0845   0.5328   1.0000
   5.000   1.0325   0.03569   0.02496  -0.0797   0.5191   1.0000
   5.250   1.0448   0.03644   0.02574  -0.0769   0.5055   1.0000
   5.500   1.0711   0.03664   0.02587  -0.0762   0.4923   1.0000
   5.750   1.1078   0.03635   0.02544  -0.0769   0.4785   1.0000
   6.000   1.1072   0.03743   0.02662  -0.0722   0.4656   1.0000
   6.250   1.1179   0.03811   0.02732  -0.0692   0.4533   1.0000
   6.500   1.1445   0.03799   0.02712  -0.0684   0.4403   1.0000
   6.750   1.1606   0.03852   0.02766  -0.0663   0.4293   1.0000
   7.000   1.1643   0.03968   0.02892  -0.0626   0.4196   1.0000
   7.250   1.2016   0.03948   0.02865  -0.0637   0.4097   1.0000
   7.500   1.1878   0.04136   0.03072  -0.0576   0.4008   1.0000
   7.750   1.2211   0.04114   0.03043  -0.0580   0.3904   1.0000
   8.000   1.2135   0.04264   0.03208  -0.0528   0.3812   1.0000
   8.250   1.2306   0.04289   0.03234  -0.0508   0.3704   1.0000
   8.500   1.2659   0.04230   0.03163  -0.0513   0.3577   1.0000
   8.750   1.2402   0.04426   0.03382  -0.0437   0.3495   1.0000
   9.000   1.2562   0.04418   0.03368  -0.0414   0.3365   1.0000
   9.250   1.2754   0.04398   0.03340  -0.0396   0.3225   1.0000
   9.500   1.2642   0.04536   0.03493  -0.0344   0.3115   1.0000
   9.750   1.2625   0.04650   0.03612  -0.0306   0.2994   1.0000
  10.000   1.2639   0.04724   0.03684  -0.0271   0.2843   1.0000
  10.250   1.2608   0.04834   0.03791  -0.0234   0.2681   1.0000
  10.500   1.2560   0.04981   0.03933  -0.0199   0.2519   1.0000
  10.750   1.2508   0.05159   0.04105  -0.0167   0.2360   1.0000
  11.000   1.2447   0.05367   0.04304  -0.0138   0.2202   1.0000
  11.250   1.2540   0.05505   0.04423  -0.0121   0.2078   1.0000
  11.500   1.2361   0.05876   0.04821  -0.0096   0.2000   1.0000
  11.750   1.2522   0.06007   0.04936  -0.0086   0.1918   1.0000
  12.000   1.2318   0.06457   0.05415  -0.0069   0.1875   1.0000
  12.250   1.2244   0.06816   0.05788  -0.0058   0.1836   1.0000
  12.500   1.2632   0.06792   0.05741  -0.0054   0.1784   1.0000
  12.750   1.2233   0.07465   0.06450  -0.0044   0.1771   1.0000
  13.000   1.1582   0.08542   0.07563  -0.0055   0.1768   1.0000
  13.250   0.8468   0.15014   0.14052  -0.0340   0.1845   1.0000
  13.500   0.8346   0.15771   0.14807  -0.0370   0.1865   1.0000
  13.750   0.8308   0.16374   0.15411  -0.0392   0.1892   1.0000
  14.000   0.8381   0.16813   0.15851  -0.0401   0.1920   1.0000
  14.000   0.8381   0.16813   0.15851  -0.0401   0.1920   1.0000
  14.100   0.8442   0.16953   0.15992  -0.0402   0.1928   1.0000
  14.200   0.8512   0.17083   0.16123  -0.0401   0.1934   1.0000
  14.700   0.8082   0.19649   0.18698  -0.0538   0.2729   1.0000
  15.000   0.8000   0.19882   0.18929  -0.0559   0.2717   1.0000
  14.750   0.8084   0.19708   0.18757  -0.0540   0.2728   1.0000
  14.850   0.8044   0.19779   0.18827  -0.0548   0.2725   1.0000
  14.950   0.7998   0.19831   0.18878  -0.0557   0.2718   1.0000
  15.250   0.7960   0.20069   0.19115  -0.0577   0.2682   1.0000
  15.500   0.8011   0.20333   0.19379  -0.0589   0.2652   1.0000
  15.750   0.8092   0.20623   0.19670  -0.0598   0.2622   1.0000
  16.000   0.8204   0.20953   0.20003  -0.0605   0.2598   1.0000
  16.250   0.8354   0.21375   0.20429  -0.0609   0.2580   1.0000
  16.500   0.8543   0.21961   0.21020  -0.0614   0.2569   1.0000
  16.750   0.8454   0.21985   0.21039  -0.0636   0.2555   1.0000
  17.000   0.8413   0.22057   0.21110  -0.0657   0.2517   1.0000
  17.250   0.8474   0.22295   0.21350  -0.0669   0.2482   1.0000
  17.500   0.8562   0.22567   0.21626  -0.0679   0.2456   1.0000
  17.750   0.8677   0.22897   0.21960  -0.0686   0.2432   1.0000
  18.000   0.8821   0.23331   0.22398  -0.0692   0.2416   1.0000
  18.250   0.9032   0.24080   0.23153  -0.0695   0.2404   1.0000
  18.500   0.8893   0.23798   0.22867  -0.0724   0.2388   1.0000
  18.750   0.8897   0.23882   0.22952  -0.0744   0.2349   1.0000
  19.000   0.8966   0.24110   0.23185  -0.0758   0.2317   1.0000
  19.250   0.9065   0.24394   0.23474  -0.0767   0.2285   1.0000
  19.500   0.9186   0.24755   0.23841  -0.0774   0.2265   1.0000
  19.750   0.9341   0.25299   0.24392  -0.0779   0.2251   1.0000
  20.000   0.9443   0.25771   0.24868  -0.0790   0.2242   1.0000
   0.000   0.0250   0.04891   0.03885  -0.0221   0.8170   0.1668
  -0.250  -0.0249   0.05018   0.04033  -0.0190   0.8286   0.1695
  -0.500  -0.0583   0.05030   0.04107  -0.0189   0.8403   0.1817
  -0.750  -0.0842   0.05100   0.04217  -0.0196   0.8532   0.1965
  -1.000  -0.1208   0.05235   0.04403  -0.0188   0.8654   0.2237
  -1.250  -0.1783   0.05365   0.04655  -0.0143   0.8771   0.3117
  -1.500  -0.3053   0.05702   0.05280   0.0438   0.8970   0.7675
  -1.750  -0.2543   0.05883   0.05455   0.0369   0.9082   0.7876
  -2.000  -0.1988   0.06031   0.05593   0.0278   0.9207   0.8034
  -2.250  -0.1368   0.06153   0.05703   0.0186   0.9340   0.8284
  -2.500  -0.0836   0.06258   0.05798   0.0118   0.9495   0.8745
  -2.750  -0.0263   0.06294   0.05824   0.0029   0.9668   0.9236
  -3.000   0.0246   0.06310   0.05828  -0.0064   0.9883   0.9786
  -3.250   0.0478   0.06342   0.05843  -0.0110   1.0000   1.0000
  -3.500   0.0559   0.06341   0.05831  -0.0127   1.0000   1.0000
  -3.750   0.0642   0.06337   0.05814  -0.0146   1.0000   1.0000
  -4.000   0.0723   0.06344   0.05808  -0.0165   1.0000   1.0000
  -4.250   0.0789   0.06364   0.05815  -0.0185   1.0000   1.0000
  -4.500   0.0837   0.06410   0.05848  -0.0204   1.0000   1.0000
  -4.750  -0.4843   0.08616   0.08117   0.0145   1.0000   0.3237
  -5.000  -0.4719   0.08726   0.08225   0.0131   1.0000   0.3067
  -5.250  -0.4557   0.08881   0.08376   0.0120   1.0000   0.2936
  -5.500  -0.4661   0.09222   0.08704   0.0072   1.0000   0.2839
  -6.000  -0.4408   0.09536   0.09004   0.0036   1.0000   0.2637
  -6.250  -0.4119   0.09575   0.09034   0.0025   1.0000   0.2560
  -6.500  -0.4345   0.10006   0.09456  -0.0019   1.0000   0.2458
  -6.750  -0.3915   0.09958   0.09396  -0.0025   1.0000   0.2417
  -7.000  -0.3691   0.10036   0.09462  -0.0056   1.0000   0.2362
  -6.750  -0.3915   0.09958   0.09396  -0.0025   1.0000   0.2417
  -6.850  -0.3807   0.09980   0.09413  -0.0036   1.0000   0.2398
  -6.950  -0.3719   0.10011   0.09440  -0.0050   1.0000   0.2371
  -7.250  -0.3926   0.10487   0.09908  -0.0078   1.0000   0.2260
  -7.500  -0.3546   0.10460   0.09865  -0.0107   1.0000   0.2240
  -7.750  -0.3305   0.10517   0.09907  -0.0130   1.0000   0.2181
  -8.000  -0.3677   0.11105   0.10495  -0.0152   1.0000   0.2075
  -8.250  -0.3315   0.11053   0.10426  -0.0171   1.0000   0.2060
  -8.500  -0.3086   0.11085   0.10444  -0.0184   1.0000   0.2005
  -8.750  -0.3176   0.11375   0.10729  -0.0206   1.0000   0.1924
  -9.000  -0.3303   0.11840   0.11188  -0.0223   1.0000   0.1884
  -9.250  -0.3004   0.11765   0.11097  -0.0227   1.0000   0.1853
  -9.500  -0.2922   0.11899   0.11221  -0.0236   1.0000   0.1799
  -9.750  -0.3015   0.12210   0.11528  -0.0253   1.0000   0.1737
 -10.000  -0.3236   0.12830   0.12144  -0.0272   1.0000   0.1700
 -10.250  -0.2986   0.12737   0.12036  -0.0268   1.0000   0.1681
 -10.500  -0.2880   0.12819   0.12108  -0.0267   1.0000   0.1637
 -10.750  -0.2894   0.13051   0.12333  -0.0273   1.0000   0.1584
 -11.000  -0.3094   0.13552   0.12834  -0.0293   1.0000   0.1534
 -11.250  -0.3181   0.14029   0.13304  -0.0300   1.0000   0.1513
 -11.500  -0.2998   0.13946   0.13209  -0.0288   1.0000   0.1495
 -11.750  -0.2938   0.14052   0.13307  -0.0283   1.0000   0.1458
 -12.000  -0.2959   0.14280   0.13528  -0.0284   1.0000   0.1415
 -12.250  -0.3066   0.14645   0.13890  -0.0293   1.0000   0.1369
 -12.500  -0.3356   0.15521   0.14766  -0.0314   1.0000   0.1336
 -12.750  -0.3193   0.15396   0.14631  -0.0297   1.0000   0.1327
 -13.000  -0.3095   0.15372   0.14598  -0.0283   1.0000   0.1296
 -13.250  -0.3108   0.15571   0.14792  -0.0278   1.0000   0.1258
 -13.500  -0.3164   0.15845   0.15062  -0.0278   1.0000   0.1222
 -13.750  -0.3285   0.16267   0.15483  -0.0285   1.0000   0.1189
 -14.000  -0.3597   0.17306   0.16522  -0.0304   1.0000   0.1165
 -14.250  -0.3467   0.17161   0.16368  -0.0285   1.0000   0.1160
 -14.500  -0.3380   0.17078   0.16278  -0.0268   1.0000   0.1146
 -14.750  -0.3377   0.17194   0.16390  -0.0257   1.0000   0.1121
 -15.000  -0.3415   0.17417   0.16610  -0.0250   1.0000   0.1093
 -15.250  -0.3476   0.17693   0.16882  -0.0247   1.0000   0.1061
 -15.500  -0.3572   0.18054   0.17241  -0.0247   1.0000   0.1034
 -15.750  -0.3913   0.19332   0.18520  -0.0268   1.0000   0.1007
 -16.000  -0.3805   0.19105   0.18286  -0.0247   1.0000   0.1002
 -16.250  -0.3745   0.18974   0.18150  -0.0228   1.0000   0.0991
 -16.500  -0.3753   0.19058   0.18229  -0.0213   1.0000   0.0969
 -16.750  -0.3802   0.19279   0.18448  -0.0203   1.0000   0.0945
 -17.000  -0.3866   0.19537   0.18704  -0.0196   1.0000   0.0923
 -17.250  -0.3941   0.19828   0.18993  -0.0190   1.0000   0.0904
 -17.500  -0.4038   0.20207   0.19371  -0.0187   1.0000   0.0885
 -17.750  -0.4327   0.21537   0.20701  -0.0202   1.0000   0.0865
 -18.000  -0.4271   0.21326   0.20485  -0.0182   1.0000   0.0862
 -18.250  -0.4239   0.21161   0.20315  -0.0160   1.0000   0.0854
 -18.500  -0.4259   0.21201   0.20353  -0.0142   1.0000   0.0837
 -18.750  -0.4315   0.21400   0.20550  -0.0128   1.0000   0.0814
 -19.000  -0.4384   0.21657   0.20805  -0.0118   1.0000   0.0792
 -19.250  -0.4463   0.21950   0.21097  -0.0110   1.0000   0.0773
 -19.500  -0.4555   0.22318   0.21463  -0.0104   1.0000   0.0758
 -19.750  -0.4731   0.23220   0.22367  -0.0110   1.0000   0.0743
 -20.000  -0.4773   0.23404   0.22546  -0.0094   1.0000   0.0739
