  
       XFOIL         Version 6.99
  
 Calculated polar for: LNV109A                                         
  
 1 1 Reynolds number fixed          Mach number fixed         
  
 xtrf =   1.000 (top)        1.000 (bottom)  
 Mach =   0.000     Re =     0.050 e 6     Ncrit =   9.000
  
   alpha    CL        CD       CDp       CM     Top_Xtr  Bot_Xtr
  ------ -------- --------- --------- -------- -------- --------
  -0.250  -0.1779   0.08887   0.08424  -0.0394   0.8749   0.3895
  -0.150  -0.1674   0.08860   0.08397  -0.0397   0.8697   0.4093
  -0.050  -0.1574   0.08847   0.08387  -0.0394   0.8667   0.4301
   0.750  -0.1460   0.08281   0.07842  -0.0241   0.8161   0.5748
   0.500  -0.1479   0.08455   0.08010  -0.0290   0.8310   0.5328
   0.600  -0.1413   0.08429   0.07988  -0.0274   0.8282   0.5547
   0.700  -0.1482   0.08312   0.07873  -0.0246   0.8192   0.5611
   1.000  -0.1327   0.08176   0.07744  -0.0197   0.8083   0.6243
   0.750  -0.1460   0.08281   0.07842  -0.0241   0.8162   0.5748
   0.850  -0.1405   0.08231   0.07794  -0.0227   0.8120   0.5952
   0.950  -0.1337   0.08200   0.07765  -0.0214   0.8093   0.6164
   1.250  -0.1277   0.07996   0.07564  -0.0170   0.7925   0.6585
   1.500  -0.1210   0.07847   0.07419  -0.0135   0.7819   0.6861
   2.000  -0.0611   0.07726   0.07285  -0.0200   0.7552   0.7194
   2.250   0.2114   0.08515   0.07787  -0.0894   0.7327   0.2551
   2.500   0.2507   0.08608   0.07805  -0.0923   0.7244   0.2198
   2.750   0.2761   0.08598   0.07780  -0.0929   0.7116   0.2113
   3.000   0.2973   0.08699   0.07824  -0.0930   0.7006   0.2012
   3.250   0.3276   0.08799   0.07899  -0.0940   0.6912   0.2007
   3.000   0.2973   0.08699   0.07824  -0.0930   0.7006   0.2012
   3.100   0.3063   0.08711   0.07826  -0.0931   0.6957   0.2009
   3.200   0.3198   0.08762   0.07868  -0.0936   0.6924   0.2007
   3.500   0.3434   0.08899   0.07981  -0.0937   0.6830   0.2007
   3.750   0.3666   0.08983   0.08046  -0.0938   0.6719   0.2001
   4.000   0.4131   0.09332   0.08366  -0.0963   0.6675   0.2019
   4.250   0.4059   0.09215   0.08244  -0.0939   0.6529   0.2033
   4.500   0.4491   0.09553   0.08562  -0.0963   0.6480   0.2117
   4.750   0.4424   0.09510   0.08512  -0.0942   0.6355   0.2138
   5.000   0.4799   0.09791   0.08770  -0.0956   0.6291   0.2226
   5.250   0.4809   0.09858   0.08840  -0.0946   0.6195   0.2289
   5.500   0.5065   0.10052   0.09028  -0.0950   0.6112   0.2435
   5.750   0.5466   0.10430   0.09418  -0.0968   0.6073   0.2764
   6.000   0.5330   0.10369   0.09359  -0.0947   0.5957   0.2836
   6.250   0.5653   0.10454   0.09607  -0.0958   0.5894   1.0000
   6.500   0.6087   0.11032   0.10104  -0.0970   0.5862   1.0000
   6.750   0.5825   0.10821   0.09896  -0.0942   0.5735   1.0000
   7.000   0.6111   0.11181   0.10230  -0.0948   0.5682   1.0000
   7.250   0.6141   0.11386   0.10426  -0.0943   0.5625   1.0000
   7.500   0.6211   0.11521   0.10554  -0.0937   0.5522   1.0000
   7.750   0.6495   0.11912   0.10930  -0.0943   0.5474   1.0000
   8.000   0.6515   0.12129   0.11143  -0.0940   0.5424   1.0000
   8.250   0.6548   0.12241   0.11251  -0.0934   0.5323   1.0000
   8.500   0.6818   0.12626   0.11627  -0.0939   0.5271   1.0000
   8.750   0.7150   0.13236   0.12227  -0.0951   0.5245   1.0000
   9.000   0.6861   0.12987   0.11985  -0.0936   0.5136   1.0000
   9.250   0.7082   0.13325   0.12318  -0.0939   0.5077   1.0000
   9.500   0.7448   0.13959   0.12946  -0.0950   0.5045   1.0000
   9.750   0.7172   0.13777   0.12769  -0.0941   0.4960   1.0000
  10.000   0.7328   0.14054   0.13044  -0.0943   0.4891   1.0000
  10.250   0.7631   0.14573   0.13560  -0.0949   0.4849   1.0000
  10.500   0.7548   0.14692   0.13681  -0.0951   0.4804   1.0000
  10.750   0.7581   0.14831   0.13823  -0.0952   0.4715   1.0000
  11.000   0.7809   0.15231   0.14223  -0.0956   0.4661   1.0000
  11.250   0.8201   0.16053   0.15045  -0.0967   0.4634   1.0000
  11.500   0.7857   0.15667   0.14663  -0.0966   0.4551   1.0000
  11.750   0.8016   0.15977   0.14976  -0.0970   0.4483   1.0000
  12.000   0.8327   0.16616   0.15617  -0.0975   0.4445   1.0000
  12.250   0.8166   0.16570   0.15575  -0.0984   0.4392   1.0000
  12.500   0.8255   0.16793   0.15801  -0.0989   0.4311   1.0000
  12.750   0.8519   0.17338   0.16349  -0.0993   0.4263   1.0000
  13.000   0.8472   0.17491   0.16506  -0.1004   0.4222   1.0000
  13.250   0.8519   0.17652   0.16671  -0.1012   0.4137   1.0000
  13.500   0.8782   0.18222   0.17247  -0.1015   0.4086   1.0000
  13.750   0.8706   0.18298   0.17325  -0.1030   0.4037   1.0000
  14.000   0.8804   0.18546   0.17579  -0.1038   0.3957   1.0000
  14.250   0.9102   0.19299   0.18337  -0.1041   0.3912   1.0000
  14.500   0.8946   0.19115   0.18157  -0.1060   0.3838   1.0000
  14.750   0.9163   0.19600   0.18649  -0.1062   0.3771   1.0000
  15.000   0.9134   0.19750   0.18803  -0.1081   0.3720   1.0000
  15.250   0.9272   0.20074   0.19133  -0.1088   0.3637   1.0000
  15.500   0.9338   0.20411   0.19473  -0.1102   0.3591   1.0000
  15.750   0.9420   0.20640   0.19708  -0.1113   0.3501   1.0000
  16.000   0.9531   0.21057   0.20131  -0.1124   0.3454   1.0000
  16.250   0.9584   0.21237   0.20316  -0.1138   0.3363   1.0000
  16.500   0.9706   0.21676   0.20760  -0.1149   0.3314   1.0000
  16.750   0.9752   0.21845   0.20934  -0.1165   0.3223   1.0000
  17.000   0.9878   0.22296   0.21390  -0.1175   0.3174   1.0000
  17.250   0.9921   0.22461   0.21559  -0.1193   0.3083   1.0000
  17.500   1.0047   0.22920   0.22024  -0.1203   0.3034   1.0000
  17.750   1.0083   0.23075   0.22183  -0.1222   0.2946   1.0000
  18.000   1.0232   0.23585   0.22699  -0.1230   0.2898   1.0000
  18.250   1.0237   0.23689   0.22805  -0.1254   0.2817   1.0000
  18.500   1.0433   0.24297   0.23419  -0.1255   0.2763   1.0000
  18.750   1.0392   0.24313   0.23437  -0.1287   0.2698   1.0000
  19.000   1.0608   0.24916   0.24049  -0.1283   0.2632   1.0000
  19.250   1.0566   0.24983   0.24115  -0.1318   0.2594   1.0000
  19.500   1.0673   0.25284   0.24420  -0.1330   0.2518   1.0000
  19.750   1.0815   0.25831   0.24971  -0.1338   0.2484   1.0000
  20.000   1.0795   0.25869   0.25010  -0.1371   0.2424   1.0000
   0.000  -0.1632   0.08765   0.08305  -0.0377   0.8599   0.4306
  -0.250  -0.1779   0.08887   0.08424  -0.0394   0.8749   0.3895
  -0.500  -0.1908   0.09125   0.08654  -0.0413   0.8914   0.3651
  -0.750  -0.2193   0.09149   0.08686  -0.0386   0.9101   0.3270
  -1.000  -0.2539   0.09260   0.08805  -0.0332   0.9304   0.2953
  -1.500  -0.3075   0.09696   0.09237  -0.0300   0.9712   0.2628
  -1.750  -0.3548   0.09822   0.09374  -0.0212   0.9907   0.2428
  -2.000  -0.3968   0.09929   0.09497  -0.0108   1.0000   0.2253
  -2.250  -0.3964   0.10257   0.09817  -0.0148   1.0000   0.2222
  -2.500  -0.4200   0.10362   0.09939  -0.0050   1.0000   0.2096
  -2.750  -0.4237   0.10593   0.10168  -0.0069   1.0000   0.2046
  -3.000  -0.4230   0.10937   0.10504  -0.0113   1.0000   0.2021
  -2.750  -0.4237   0.10594   0.10168  -0.0069   1.0000   0.2046
  -2.850  -0.4242   0.10707   0.10279  -0.0082   1.0000   0.2035
  -2.950  -0.4233   0.10858   0.10426  -0.0104   1.0000   0.2024
  -3.250  -0.4379   0.11040   0.10621  -0.0008   1.0000   0.1925
  -3.500  -0.4412   0.11243   0.10824  -0.0010   1.0000   0.1872
  -3.750  -0.4431   0.11516   0.11094  -0.0043   1.0000   0.1839
  -4.000  -0.4423   0.11977   0.11545  -0.0104   1.0000   0.1820
  -4.250  -0.4415   0.11911   0.11491   0.0017   1.0000   0.1761
  -4.500  -0.4383   0.12074   0.11655   0.0024   1.0000   0.1718
  -5.000  -0.0060   0.09578   0.09023  -0.0559   0.6917   0.2262
  -5.250  -0.0336   0.10171   0.09612  -0.0609   0.6936   0.2213
  -5.500  -0.0195   0.09797   0.09231  -0.0497   0.6911   0.2140
  -5.750  -0.0326   0.09952   0.09382  -0.0479   0.6913   0.2063
  -6.000  -0.0713   0.10722   0.10149  -0.0526   0.6932   0.2012
  -6.250  -0.0498   0.10292   0.09710  -0.0432   0.6917   0.1974
  -6.500  -0.0553   0.10370   0.09784  -0.0405   0.6925   0.1903
  -6.750  -0.0807   0.10760   0.10175  -0.0407   0.6948   0.1838
  -6.500  -0.0553   0.10370   0.09784  -0.0405   0.6925   0.1903
  -6.600  -0.0619   0.10464   0.09878  -0.0401   0.6933   0.1876
  -6.700  -0.0728   0.10632   0.10047  -0.0403   0.6943   0.1849
  -7.000  -0.0942   0.11097   0.10508  -0.0388   0.6964   0.1807
  -7.250  -0.0886   0.10980   0.10384  -0.0337   0.6969   0.1751
  -7.500  -0.1024   0.11194   0.10594  -0.0316   0.6983   0.1689
  -7.750  -0.1355   0.11799   0.11201  -0.0319   0.7005   0.1641
  -8.000  -0.1434   0.12034   0.11429  -0.0285   0.7016   0.1624
  -8.250  -0.1387   0.11922   0.11310  -0.0238   0.7025   0.1588
  -8.500  -0.1488   0.12105   0.11489  -0.0209   0.7044   0.1540
  -8.750  -0.1657   0.12409   0.11789  -0.0188   0.7066   0.1499
  -9.000  -0.1969   0.13107   0.12492  -0.0196   0.7097   0.1465
  -9.250  -0.2013   0.13303   0.12684  -0.0169   0.7114   0.1452
  -9.500  -0.1958   0.13172   0.12548  -0.0129   0.7125   0.1426
  -9.750  -0.2032   0.13334   0.12708  -0.0105   0.7143   0.1385
 -10.000  -0.2165   0.13613   0.12987  -0.0087   0.7165   0.1346
 -10.250  -0.2400   0.14151   0.13524  -0.0080   0.7197   0.1312
 -10.500  -0.2616   0.14775   0.14144  -0.0066   0.7230   0.1296
 -10.750  -0.2561   0.14623   0.13987  -0.0023   0.7246   0.1283
 -11.000  -0.2619   0.14738   0.14097   0.0010   0.7271   0.1256
 -11.250  -0.2715   0.14970   0.14330   0.0030   0.7298   0.1226
 -11.500  -0.2833   0.15257   0.14618   0.0046   0.7330   0.1200
 -11.750  -0.2994   0.15661   0.15023   0.0059   0.7368   0.1176
 -12.000  -0.3339   0.16705   0.16067   0.0058   0.7420   0.1157
 -12.250  -0.3275   0.16492   0.15848   0.0099   0.7438   0.1150
 -12.500  -0.3296   0.16478   0.15831   0.0136   0.7464   0.1131
 -12.750  -0.3385   0.16686   0.16039   0.0161   0.7497   0.1103
 -13.000  -0.3495   0.16960   0.16316   0.0178   0.7541   0.1078
 -13.250  -0.3632   0.17312   0.16670   0.0195   0.7594   0.1056
 -13.500  -0.3836   0.17918   0.17276   0.0206   0.7661   0.1038
 -13.750  -0.3986   0.18445   0.17805   0.0220   0.7723   0.1030
 -14.000  -0.3989   0.18354   0.17715   0.0254   0.7768   0.1022
 -14.250  -0.4055   0.18459   0.17822   0.0284   0.7829   0.1006
 -14.500  -0.4156   0.18694   0.18060   0.0308   0.7898   0.0987
 -14.750  -0.4263   0.18962   0.18335   0.0327   0.7981   0.0966
 -15.000  -0.4390   0.19289   0.18668   0.0346   0.8084   0.0947
 -15.250  -0.4534   0.19740   0.19131   0.0354   0.8225   0.0931
 -15.500  -0.4702   0.20397   0.19804   0.0359   0.8452   0.0921
 -15.750  -0.4712   0.20235   0.19661   0.0389   0.8822   0.0915
 -16.000  -0.4800   0.20254   0.19680   0.0426   1.0000   0.0903
 -16.250  -0.4945   0.20542   0.19959   0.0467   1.0000   0.0885
 -16.500  -0.5096   0.20875   0.20283   0.0504   1.0000   0.0868
 -16.750  -0.5249   0.21237   0.20634   0.0536   1.0000   0.0852
 -17.000  -0.5408   0.21668   0.21054   0.0563   1.0000   0.0839
 -17.250  -0.5612   0.22475   0.21850   0.0578   1.0000   0.0828
 -17.500  -0.5676   0.22476   0.21839   0.0615   1.0000   0.0823
 -17.750  -0.5756   0.22547   0.21900   0.0648   1.0000   0.0812
 -18.000  -0.5860   0.22778   0.22124   0.0675   1.0000   0.0797
 -18.250  -0.5970   0.23059   0.22397   0.0698   1.0000   0.0783
 -18.500  -0.6082   0.23363   0.22693   0.0719   1.0000   0.0770
 -18.750  -0.6197   0.23705   0.23029   0.0738   1.0000   0.0759
 -19.000  -0.6325   0.24167   0.23485   0.0753   1.0000   0.0749
 -19.500  -0.6518   0.24706   0.24011   0.0798   1.0000   0.0739
 -19.750  -0.6600   0.24836   0.24137   0.0825   1.0000   0.0729
 -20.000  -0.6697   0.25071   0.24369   0.0849   1.0000   0.0716
