  
       XFOIL         Version 6.99
  
 Calculated polar for: FX 74-080                                       
  
 1 1 Reynolds number fixed          Mach number fixed         
  
 xtrf =   1.000 (top)        1.000 (bottom)  
 Mach =   0.000     Re =     0.050 e 6     Ncrit =   9.000
  
   alpha    CL        CD       CDp       CM     Top_Xtr  Bot_Xtr
  ------ -------- --------- --------- -------- -------- --------
   0.000   0.0352   0.03193   0.02041  -0.0569   1.0000   0.1343
   0.250   0.0636   0.03128   0.01964  -0.0567   1.0000   0.1602
   0.500   0.0939   0.02788   0.01863  -0.0561   1.0000   1.0000
   0.750   0.1156   0.02850   0.01843  -0.0553   1.0000   1.0000
   1.000   0.1361   0.02916   0.01865  -0.0550   1.0000   1.0000
   1.250   0.1562   0.02984   0.01900  -0.0547   1.0000   1.0000
   1.500   0.1761   0.03055   0.01946  -0.0544   1.0000   1.0000
   1.750   0.1957   0.03129   0.01997  -0.0542   1.0000   1.0000
   2.000   0.2151   0.03206   0.02057  -0.0540   1.0000   1.0000
   2.250   0.2342   0.03287   0.02118  -0.0538   1.0000   1.0000
   2.500   0.2532   0.03371   0.02189  -0.0536   1.0000   1.0000
   2.750   0.2720   0.03458   0.02267  -0.0534   1.0000   1.0000
   3.000   0.2905   0.03548   0.02350  -0.0532   1.0000   1.0000
   3.250   0.3087   0.03643   0.02439  -0.0531   1.0000   1.0000
   3.500   0.3268   0.03741   0.02535  -0.0530   1.0000   1.0000
   3.750   0.3445   0.03844   0.02637  -0.0529   1.0000   1.0000
   4.000   0.3620   0.03950   0.02748  -0.0528   1.0000   1.0000
   4.250   0.3793   0.04062   0.02861  -0.0527   1.0000   1.0000
   4.500   0.3962   0.04178   0.02981  -0.0527   1.0000   1.0000
   4.750   0.4128   0.04300   0.03111  -0.0527   1.0000   1.0000
   5.000   0.4292   0.04428   0.03245  -0.0527   1.0000   1.0000
   5.250   0.4451   0.04562   0.03391  -0.0528   1.0000   1.0000
   5.500   0.4607   0.04702   0.03543  -0.0529   1.0000   1.0000
   5.750   0.4758   0.04851   0.03705  -0.0530   1.0000   1.0000
   6.000   0.4906   0.05007   0.03886  -0.0532   1.0000   1.0000
   6.250   0.5048   0.05172   0.04068  -0.0534   1.0000   1.0000
   6.500   0.5187   0.05346   0.04260  -0.0537   1.0000   1.0000
   6.750   0.5403   0.05579   0.04519  -0.0558   0.9964   1.0000
   7.000   0.5909   0.05966   0.04952  -0.0637   0.9665   1.0000
   7.250   1.0858   0.04393   0.03212  -0.0744   0.0743   1.0000
   7.500   1.1173   0.04646   0.03547  -0.0728   0.0785   1.0000
   7.750   1.1526   0.05122   0.04072  -0.0725   0.0844   1.0000
   8.000   1.1724   0.05469   0.04499  -0.0697   0.0924   1.0000
   8.250   1.1926   0.05911   0.04997  -0.0675   0.1021   1.0000
   8.500   1.2071   0.06380   0.05525  -0.0650   0.1141   1.0000
   8.750   1.2065   0.06766   0.05990  -0.0608   0.1289   1.0000
   9.000   1.2171   0.07377   0.06655  -0.0589   0.1524   1.0000
   9.250   1.1937   0.07733   0.07075  -0.0546   0.1677   1.0000
   9.500   1.1708   0.08170   0.07550  -0.0517   0.1813   1.0000
   9.750   1.1387   0.08537   0.07934  -0.0484   0.1841   1.0000
  10.000   1.1140   0.09034   0.08446  -0.0472   0.1937   1.0000
  10.250   1.0805   0.09533   0.08950  -0.0468   0.1939   1.0000
  10.500   1.0514   0.10097   0.09517  -0.0481   0.1938   1.0000
  10.750   1.0198   0.10781   0.10199  -0.0512   0.1940   1.0000
  11.000   0.9862   0.11643   0.11053  -0.0570   0.1955   1.0000
  11.250   0.9555   0.12812   0.12210  -0.0667   0.2273   1.0000
  11.500   0.8198   0.11634   0.11089  -0.0462   0.1436   1.0000
  11.750   0.7935   0.12401   0.11853  -0.0516   0.1572   1.0000
  11.750   0.7989   0.12442   0.11895  -0.0513   0.1619   1.0000
  11.850   0.7832   0.12750   0.12202  -0.0543   0.1696   1.0000
  11.950   0.7687   0.13267   0.12704  -0.0588   0.2007   1.0000
  12.250   0.9045   0.15725   0.15088  -0.0872   0.3138   1.0000
  12.500   0.9035   0.16140   0.15511  -0.0882   0.3045   1.0000
  12.500   0.9034   0.16141   0.15512  -0.0882   0.3045   1.0000
  12.600   0.9075   0.16324   0.15696  -0.0884   0.3010   1.0000
  12.700   0.9174   0.16569   0.15944  -0.0883   0.2986   1.0000
  13.000   0.9218   0.17068   0.16441  -0.0890   0.2853   1.0000
  13.000   0.9218   0.17068   0.16441  -0.0890   0.2853   1.0000
  13.100   0.9223   0.17252   0.16623  -0.0895   0.2825   1.0000
  13.200   0.9151   0.17285   0.16653  -0.0903   0.2760   1.0000
  13.500   0.9204   0.17765   0.17131  -0.0912   0.2631   1.0000
  13.750   0.9266   0.18192   0.17556  -0.0920   0.2533   1.0000
  14.000   0.9422   0.18745   0.18112  -0.0920   0.2429   1.0000
  14.250   0.9592   0.19307   0.18677  -0.0915   0.2305   1.0000
  14.500   0.9421   0.19326   0.18687  -0.0949   0.2217   1.0000
  14.750   0.9469   0.19721   0.19080  -0.0962   0.2131   1.0000
  15.000   0.9598   0.20230   0.19591  -0.0963   0.2027   1.0000
  15.250   0.9746   0.20777   0.20140  -0.0962   0.1904   1.0000
  15.500   0.9628   0.20799   0.20154  -0.0999   0.1838   1.0000
  15.750   0.9728   0.21267   0.20622  -0.1006   0.1755   1.0000
  16.000   0.9893   0.21873   0.21231  -0.1002   0.1640   1.0000
  16.250   0.9801   0.21884   0.21235  -0.1043   0.1586   1.0000
  16.500   0.9962   0.22508   0.21862  -0.1040   0.1505   1.0000
  16.750   0.9922   0.22598   0.21947  -0.1075   0.1444   1.0000
  17.000   1.0119   0.23372   0.22725  -0.1066   0.1379   1.0000
  17.250   1.0048   0.23335   0.22681  -0.1110   0.1339   1.0000
  17.500   1.0186   0.23865   0.23216  -0.1111   0.1267   1.0000
  17.750   1.0226   0.24221   0.23567  -0.1135   0.1240   1.0000
  18.000   1.0234   0.24368   0.23711  -0.1167   0.1188   1.0000
  18.250   1.0488   0.25484   0.24848  -0.1144   0.1123   1.0000
  18.500   1.0415   0.25275   0.24631  -0.1193   0.1111   1.0000
  18.750   1.0432   0.25409   0.24762  -0.1226   0.1068   1.0000
  19.000   1.0536   0.25850   0.25206  -0.1235   0.1017   1.0000
  19.250   1.0661   0.26558   0.25915  -0.1240   0.0990   1.0000
  19.500   1.0647   0.26495   0.25846  -0.1284   0.0966   1.0000
  19.750   1.0705   0.26764   0.26115  -0.1308   0.0923   1.0000
  20.000   1.0839   0.27393   0.26749  -0.1307   0.0878   1.0000
   0.000   0.0352   0.03193   0.02041  -0.0569   1.0000   0.1343
  -0.250   0.0080   0.03261   0.02139  -0.0575   1.0000   0.1244
  -0.500  -0.0156   0.03342   0.02238  -0.0582   1.0000   0.1139
  -0.750  -0.0407   0.03440   0.02375  -0.0588   1.0000   0.1094
  -1.000  -0.0679   0.03581   0.02559  -0.0592   1.0000   0.1133
  -1.250  -0.0964   0.03734   0.02766  -0.0595   1.0000   0.1211
  -1.500  -0.1290   0.03945   0.03045  -0.0591   1.0000   0.1389
  -1.750  -0.1631   0.04213   0.03371  -0.0581   1.0000   0.1706
  -2.000  -0.4752   0.05619   0.05167   0.0411   1.0000   0.6724
  -2.250  -0.4696   0.05822   0.05361   0.0307   1.0000   0.6117
  -2.500  -0.4612   0.06014   0.05542   0.0188   1.0000   0.5539
  -2.750  -0.4500   0.06200   0.05714   0.0074   1.0000   0.4875
  -3.250  -0.4350   0.06611   0.06099  -0.0109   1.0000   0.3658
  -3.500  -0.4346   0.06877   0.06355  -0.0167   1.0000   0.3228
  -3.750  -0.4408   0.07148   0.06626  -0.0177   1.0000   0.2851
  -4.000  -0.4470   0.07444   0.06920  -0.0189   1.0000   0.2575
  -4.250  -0.4523   0.07781   0.07252  -0.0207   1.0000   0.2380
  -4.500  -0.4593   0.08069   0.07543  -0.0196   1.0000   0.2163
  -4.500  -0.4593   0.08069   0.07543  -0.0196   1.0000   0.2163
  -4.600  -0.4596   0.08230   0.07699  -0.0232   1.0000   0.2129
  -4.700  -0.4635   0.08314   0.07789  -0.0187   1.0000   0.2046
  -5.000  -0.4681   0.08690   0.08162  -0.0190   1.0000   0.1889
  -5.250  -0.4700   0.08995   0.08465  -0.0179   1.0000   0.1805
  -5.500  -0.4736   0.09391   0.08855  -0.0223   1.0000   0.1711
  -5.500  -0.4736   0.09392   0.08855  -0.0223   1.0000   0.1711
  -5.600  -0.4708   0.09426   0.08892  -0.0182   1.0000   0.1685
  -5.700  -0.4694   0.09508   0.08972  -0.0173   1.0000   0.1652
  -6.000  -0.4718   0.09942   0.09401  -0.0203   1.0000   0.1570
  -6.250  -0.4617   0.10089   0.09541  -0.0177   1.0000   0.1516
  -6.500  -0.4719   0.10578   0.10040  -0.0230   1.0000   0.1441
  -6.750  -0.4570   0.10655   0.10108  -0.0204   1.0000   0.1428
  -7.000  -0.4397   0.10729   0.10171  -0.0209   1.0000   0.1398
  -7.250  -0.4280   0.10855   0.10290  -0.0231   1.0000   0.1366
  -7.500  -0.4399   0.11384   0.10817  -0.0253   1.0000   0.1302
  -7.750  -0.4217   0.11404   0.10826  -0.0274   1.0000   0.1296
  -8.000  -0.4026   0.11405   0.10815  -0.0293   1.0000   0.1282
  -8.250  -0.3890   0.11479   0.10880  -0.0312   1.0000   0.1253
  -8.500  -0.3832   0.11661   0.11055  -0.0334   1.0000   0.1210
  -8.750  -0.3952   0.12215   0.11608  -0.0359   1.0000   0.1168
  -9.000  -0.3769   0.12185   0.11565  -0.0380   1.0000   0.1163
  -9.250  -0.3598   0.12160   0.11526  -0.0399   1.0000   0.1150
  -9.500  -0.3497   0.12227   0.11581  -0.0414   1.0000   0.1129
  -9.750  -0.3457   0.12408   0.11753  -0.0426   1.0000   0.1087
 -10.000  -0.3675   0.13202   0.12550  -0.0452   1.0000   0.1035
 -10.250  -0.3561   0.13193   0.12525  -0.0449   1.0000   0.1030
 -10.500  -0.3485   0.13225   0.12544  -0.0441   1.0000   0.1017
 -10.750  -0.3460   0.13372   0.12682  -0.0434   1.0000   0.0986
 -11.000  -0.3487   0.13640   0.12943  -0.0432   1.0000   0.0949
 -11.250  -0.3722   0.14571   0.13878  -0.0455   1.0000   0.0900
 -11.500  -0.3656   0.14570   0.13865  -0.0439   1.0000   0.0895
 -11.750  -0.3620   0.14624   0.13911  -0.0424   1.0000   0.0885
 -12.000  -0.3616   0.14770   0.14048  -0.0411   1.0000   0.0858
 -12.250  -0.3656   0.15017   0.14291  -0.0403   1.0000   0.0837
 -12.500  -0.3728   0.15400   0.14672  -0.0401   1.0000   0.0791
 -12.750  -0.3896   0.16214   0.15486  -0.0410   1.0000   0.0762
 -13.000  -0.3881   0.16270   0.15535  -0.0393   1.0000   0.0758
 -13.250  -0.3873   0.16321   0.15579  -0.0375   1.0000   0.0747
 -13.500  -0.3898   0.16493   0.15746  -0.0359   1.0000   0.0717
 -13.750  -0.3953   0.16772   0.16022  -0.0349   1.0000   0.0694
 -14.000  -0.4023   0.17108   0.16356  -0.0341   1.0000   0.0664
 -14.250  -0.4278   0.18394   0.17645  -0.0358   1.0000   0.0629
 -14.500  -0.4278   0.18443   0.17689  -0.0340   1.0000   0.0628
 -14.750  -0.4281   0.18476   0.17727  -0.0321   1.0000   0.0625
 -15.000  -0.4296   0.18525   0.17771  -0.0300   1.0000   0.0619
 -15.250  -0.4338   0.18666   0.17909  -0.0282   1.0000   0.0609
 -15.500  -0.4395   0.18893   0.18133  -0.0265   1.0000   0.0594
 -15.750  -0.4461   0.19164   0.18402  -0.0250   1.0000   0.0577
 -16.000  -0.4532   0.19457   0.18693  -0.0236   1.0000   0.0561
 -16.250  -0.4607   0.19758   0.18993  -0.0223   1.0000   0.0545
 -16.500  -0.4686   0.20099   0.19333  -0.0211   1.0000   0.0529
 -16.750  -0.4776   0.20525   0.19759  -0.0201   1.0000   0.0513
 -17.000  -0.4997   0.22012   0.21247  -0.0210   1.0000   0.0495
 -17.250  -0.5023   0.22016   0.21248  -0.0189   1.0000   0.0494
 -17.500  -0.5048   0.21969   0.21197  -0.0165   1.0000   0.0492
 -17.750  -0.5094   0.22013   0.21237  -0.0143   1.0000   0.0489
 -18.000  -0.5152   0.22113   0.21334  -0.0120   1.0000   0.0484
 -18.250  -0.5221   0.22279   0.21498  -0.0099   1.0000   0.0475
 -18.500  -0.5297   0.22513   0.21730  -0.0079   1.0000   0.0464
 -18.750  -0.5377   0.22785   0.22001  -0.0060   1.0000   0.0452
 -19.000  -0.5458   0.23072   0.22288  -0.0042   1.0000   0.0439
 -19.250  -0.5540   0.23372   0.22587  -0.0024   1.0000   0.0426
 -19.500  -0.5623   0.23670   0.22884  -0.0006   1.0000   0.0415
 -19.750  -0.5707   0.23990   0.23204   0.0012   1.0000   0.0403
 -20.000  -0.5792   0.24307   0.23528   0.0029   1.0000   0.0394
