  
       XFOIL         Version 6.99
  
 Calculated polar for: K3311 (smoothed)                                
  
 1 1 Reynolds number fixed          Mach number fixed         
  
 xtrf =   1.000 (top)        1.000 (bottom)  
 Mach =   0.000     Re =     0.050 e 6     Ncrit =   9.000
  
   alpha    CL        CD       CDp       CM     Top_Xtr  Bot_Xtr
  ------ -------- --------- --------- -------- -------- --------
   0.000   0.0935   0.02850   0.01896  -0.0523   0.9334   1.0000
   0.250   0.1291   0.02934   0.01955  -0.0549   0.9217   1.0000
   0.500   0.1672   0.03022   0.02020  -0.0578   0.9107   1.0000
   0.750   0.2029   0.03104   0.02082  -0.0602   0.8991   1.0000
   1.000   0.2301   0.03182   0.02145  -0.0611   0.8869   1.0000
   1.250   0.2589   0.03265   0.02213  -0.0623   0.8751   1.0000
   1.500   0.2908   0.03350   0.02286  -0.0639   0.8636   1.0000
   1.750   0.3301   0.03432   0.02358  -0.0665   0.8528   1.0000
   2.000   0.3540   0.03517   0.02436  -0.0668   0.8405   1.0000
   2.250   0.3766   0.03608   0.02521  -0.0669   0.8284   1.0000
   2.500   0.4027   0.03700   0.02608  -0.0675   0.8166   1.0000
   2.750   0.4339   0.03786   0.02691  -0.0686   0.8051   1.0000
   3.000   0.4707   0.03862   0.02766  -0.0704   0.7941   1.0000
   3.250   0.4887   0.03966   0.02869  -0.0698   0.7812   1.0000
   3.500   0.5083   0.04073   0.02977  -0.0694   0.7687   1.0000
   3.750   0.5313   0.04177   0.03082  -0.0694   0.7563   1.0000
   4.000   0.5578   0.04273   0.03183  -0.0697   0.7441   1.0000
   4.250   0.5920   0.04346   0.03261  -0.0707   0.7324   1.0000
   4.500   0.6202   0.04430   0.03352  -0.0710   0.7199   1.0000
   4.750   0.6361   0.04557   0.03486  -0.0701   0.7065   1.0000
   5.000   0.6538   0.04681   0.03615  -0.0693   0.6929   1.0000
   5.250   0.6730   0.04800   0.03742  -0.0687   0.6793   1.0000
   5.500   0.6926   0.04921   0.03871  -0.0680   0.6656   1.0000
   5.750   0.7136   0.05035   0.03998  -0.0675   0.6517   1.0000
   6.000   0.7347   0.05149   0.04122  -0.0668   0.6379   1.0000
   6.250   0.7565   0.05257   0.04242  -0.0662   0.6237   1.0000
   6.500   0.7781   0.05363   0.04360  -0.0654   0.6093   1.0000
   6.750   0.7994   0.05466   0.04480  -0.0646   0.5946   1.0000
   7.000   0.8195   0.05576   0.04603  -0.0636   0.5797   1.0000
   7.250   0.8388   0.05686   0.04728  -0.0625   0.5645   1.0000
   7.500   0.8576   0.05796   0.04853  -0.0612   0.5489   1.0000
   7.750   0.8774   0.05892   0.04968  -0.0600   0.5332   1.0000
   8.000   0.9024   0.05930   0.05026  -0.0585   0.5170   1.0000
   8.250   0.9420   0.05802   0.04926  -0.0568   0.5007   1.0000
   8.500   1.0789   0.04749   0.03946  -0.0573   0.4793   1.0000
   8.750   1.1496   0.04255   0.03482  -0.0564   0.4501   1.0000
   9.000   1.1872   0.03977   0.03215  -0.0538   0.4152   1.0000
   9.250   1.2177   0.03706   0.02933  -0.0505   0.3731   1.0000
   9.500   1.2283   0.03626   0.02839  -0.0462   0.3311   1.0000
   9.750   1.2266   0.03672   0.02857  -0.0412   0.2880   1.0000
  10.000   1.2183   0.03813   0.02960  -0.0360   0.2456   1.0000
  10.250   1.2078   0.04015   0.03128  -0.0310   0.2102   1.0000
  10.500   1.2061   0.04256   0.03321  -0.0275   0.1778   1.0000
  10.750   1.2054   0.04517   0.03579  -0.0245   0.1552   1.0000
  11.000   1.2240   0.04808   0.03851  -0.0233   0.1346   1.0000
  11.250   1.2392   0.05102   0.04148  -0.0221   0.1210   1.0000
  11.500   1.2678   0.05470   0.04523  -0.0223   0.1098   1.0000
  11.750   1.2626   0.05783   0.04882  -0.0194   0.1062   1.0000
  12.000   1.2907   0.06184   0.05273  -0.0200   0.0978   1.0000
  12.250   1.2782   0.06522   0.05654  -0.0169   0.0969   1.0000
  12.500   1.2634   0.06904   0.06073  -0.0144   0.0963   1.0000
  12.750   1.2465   0.07314   0.06516  -0.0127   0.0961   1.0000
  13.000   1.2256   0.07771   0.07002  -0.0116   0.0960   1.0000
  13.250   1.2033   0.08274   0.07530  -0.0115   0.0963   1.0000
  13.500   1.1793   0.08834   0.08112  -0.0122   0.0967   1.0000
  13.750   1.1560   0.09450   0.08746  -0.0138   0.0972   1.0000
  14.000   1.1320   0.10135   0.09444  -0.0162   0.0978   1.0000
  14.250   0.9384   0.14563   0.13862  -0.0490   0.1343   1.0000
  14.500   0.9306   0.15339   0.14633  -0.0525   0.1353   1.0000
  14.750   0.9263   0.16045   0.15336  -0.0556   0.1359   1.0000
  15.000   0.9296   0.16670   0.15964  -0.0576   0.1375   1.0000
  15.000   0.9305   0.16648   0.15940  -0.0573   0.1370   1.0000
  15.250   0.8683   0.19001   0.18267  -0.0774   0.2460   1.0000
  15.350   0.8663   0.19098   0.18363  -0.0783   0.2426   1.0000
  15.450   0.8697   0.19250   0.18516  -0.0787   0.2393   1.0000
  15.750   0.8810   0.19814   0.19083  -0.0799   0.2324   1.0000
  16.000   0.8812   0.20096   0.19365  -0.0820   0.2258   1.0000
  16.250   0.9091   0.20916   0.20194  -0.0811   0.2202   1.0000
  16.500   0.8944   0.20917   0.20187  -0.0850   0.2170   1.0000
  16.750   0.9061   0.21319   0.20594  -0.0856   0.2081   1.0000
  17.000   0.9106   0.21717   0.20990  -0.0875   0.2043   1.0000
  17.250   0.9120   0.21951   0.21222  -0.0898   0.1977   1.0000
  17.500   0.9326   0.22624   0.21904  -0.0894   0.1928   1.0000
  17.750   0.9289   0.22795   0.22068  -0.0926   0.1900   1.0000
  18.000   0.9326   0.23033   0.22309  -0.0947   0.1829   1.0000
  18.250   0.9520   0.23760   0.23042  -0.0943   0.1777   1.0000
  18.500   0.9455   0.23728   0.23003  -0.0982   0.1729   1.0000
  18.750   0.9567   0.24131   0.23411  -0.0991   0.1669   1.0000
  19.000   0.9731   0.24868   0.24151  -0.0993   0.1640   1.0000
  19.250   0.9671   0.24781   0.24058  -0.1035   0.1603   1.0000
  19.500   0.9749   0.25101   0.24380  -0.1051   0.1548   1.0000
  19.750   0.9970   0.26048   0.25335  -0.1041   0.1505   1.0000
  20.000   0.9895   0.25824   0.25103  -0.1087   0.1479   1.0000
   0.000   0.0935   0.02850   0.01896  -0.0523   0.9334   1.0000
  -0.250   0.0585   0.02768   0.01846  -0.0498   0.9454   1.0000
  -0.500   0.0229   0.02690   0.01801  -0.0471   0.9576   1.0000
  -0.750  -0.0198   0.02595   0.01750  -0.0430   0.9693   1.0000
  -1.000  -0.0641   0.02496   0.01709  -0.0387   0.9807   1.0000
  -1.250  -0.1109   0.02394   0.01698  -0.0341   0.9922   1.0000
  -1.500  -0.1598   0.02788   0.01733  -0.0333   0.9988   0.2034
  -1.750  -0.1862   0.02852   0.01795  -0.0331   1.0000   0.1764
  -2.000  -0.2059   0.02913   0.01857  -0.0340   1.0000   0.1602
  -2.250  -0.2274   0.03005   0.01956  -0.0348   1.0000   0.1518
  -2.500  -0.2479   0.03094   0.02059  -0.0357   1.0000   0.1437
  -2.750  -0.2685   0.03214   0.02202  -0.0364   1.0000   0.1373
  -3.000  -0.2903   0.03356   0.02385  -0.0372   1.0000   0.1358
  -3.250  -0.3120   0.03526   0.02598  -0.0378   1.0000   0.1348
  -3.500  -0.3332   0.03712   0.02828  -0.0383   1.0000   0.1330
  -3.750  -0.3544   0.03947   0.03112  -0.0385   1.0000   0.1343
  -4.000  -0.3745   0.04236   0.03432  -0.0387   1.0000   0.1389
  -4.250  -0.3972   0.04634   0.03905  -0.0378   1.0000   0.1529
  -4.500  -0.4208   0.05223   0.04569  -0.0349   1.0000   0.1835
  -4.500  -0.4208   0.05223   0.04569  -0.0349   1.0000   0.1835
  -5.250  -0.4003   0.07788   0.07260   0.0106   1.0000   0.4708
  -5.500  -0.3680   0.07770   0.07222   0.0045   1.0000   0.4527
  -5.750  -0.3514   0.07865   0.07302  -0.0006   1.0000   0.4351
  -6.000  -0.3425   0.08014   0.07439  -0.0047   1.0000   0.4176
  -6.250  -0.3389   0.08206   0.07620  -0.0082   1.0000   0.4005
  -6.500  -0.3636   0.08642   0.08056  -0.0098   1.0000   0.3798
  -6.750  -0.3508   0.08771   0.08170  -0.0134   1.0000   0.3641
  -7.000  -0.3419   0.08928   0.08312  -0.0164   1.0000   0.3482
  -7.250  -0.3366   0.09115   0.08487  -0.0188   1.0000   0.3322
  -7.500  -0.3329   0.09317   0.08678  -0.0207   1.0000   0.3158
  -7.750  -0.3334   0.09558   0.08909  -0.0223   1.0000   0.3005
  -8.000  -0.3401   0.09869   0.09214  -0.0237   1.0000   0.2874
  -8.250  -0.3521   0.10245   0.09588  -0.0252   1.0000   0.2738
  -8.500  -0.3429   0.10364   0.09694  -0.0258   1.0000   0.2622
  -8.750  -0.3369   0.10579   0.09899  -0.0259   1.0000   0.2530
  -9.000  -0.3500   0.10987   0.10303  -0.0270   1.0000   0.2430
  -9.250  -0.3513   0.11215   0.10525  -0.0273   1.0000   0.2317
  -9.500  -0.3457   0.11439   0.10738  -0.0268   1.0000   0.2247
  -9.750  -0.3672   0.11962   0.11262  -0.0283   1.0000   0.2140
 -10.000  -0.3514   0.11996   0.11283  -0.0268   1.0000   0.2063
 -10.250  -0.3666   0.12460   0.11746  -0.0276   1.0000   0.1984
 -10.500  -0.3610   0.12601   0.11878  -0.0266   1.0000   0.1891
 -10.750  -0.3704   0.13014   0.12288  -0.0267   1.0000   0.1830
 -11.000  -0.3673   0.13183   0.12450  -0.0257   1.0000   0.1753
 -11.250  -0.3886   0.13798   0.13067  -0.0267   1.0000   0.1694
 -11.500  -0.3755   0.13806   0.13066  -0.0245   1.0000   0.1652
 -11.750  -0.3843   0.14148   0.13406  -0.0243   1.0000   0.1581
 -12.000  -0.3971   0.14669   0.13924  -0.0244   1.0000   0.1543
 -12.250  -0.3887   0.14718   0.13965  -0.0223   1.0000   0.1499
 -12.500  -0.3966   0.15048   0.14294  -0.0218   1.0000   0.1440
 -12.750  -0.4182   0.15769   0.15016  -0.0226   1.0000   0.1400
 -13.000  -0.4068   0.15712   0.14950  -0.0200   1.0000   0.1376
 -13.250  -0.4090   0.15928   0.15162  -0.0186   1.0000   0.1329
 -13.500  -0.4231   0.16398   0.15633  -0.0188   1.0000   0.1275
 -13.750  -0.4344   0.16928   0.16162  -0.0182   1.0000   0.1250
 -14.000  -0.4280   0.16906   0.16133  -0.0158   1.0000   0.1223
 -14.250  -0.4326   0.17152   0.16377  -0.0145   1.0000   0.1172
 -14.500  -0.4507   0.17765   0.16993  -0.0150   1.0000   0.1121
 -14.750  -0.4582   0.18201   0.17424  -0.0139   1.0000   0.1105
 -15.000  -0.4545   0.18173   0.17391  -0.0113   1.0000   0.1087
 -15.250  -0.4582   0.18373   0.17587  -0.0096   1.0000   0.1050
 -15.500  -0.4660   0.18690   0.17903  -0.0085   1.0000   0.1013
 -15.750  -0.4780   0.19131   0.18345  -0.0080   1.0000   0.0985
 -16.000  -0.4979   0.20051   0.19265  -0.0083   1.0000   0.0964
 -16.250  -0.4935   0.19906   0.19114  -0.0055   1.0000   0.0956
 -16.500  -0.4951   0.19961   0.19165  -0.0031   1.0000   0.0937
 -16.750  -0.5011   0.20189   0.19393  -0.0013   1.0000   0.0910
 -17.000  -0.5088   0.20476   0.19679   0.0001   1.0000   0.0883
 -17.250  -0.5183   0.20836   0.20039   0.0012   1.0000   0.0855
 -17.500  -0.5336   0.21515   0.20721   0.0012   1.0000   0.0831
 -17.750  -0.5477   0.22278   0.21482   0.0019   1.0000   0.0821
 -18.000  -0.5458   0.22064   0.21262   0.0049   1.0000   0.0814
 -18.250  -0.5492   0.22094   0.21289   0.0074   1.0000   0.0802
 -18.500  -0.5553   0.22270   0.21463   0.0096   1.0000   0.0778
 -18.750  -0.5630   0.22540   0.21732   0.0113   1.0000   0.0749
 -19.000  -0.5717   0.22847   0.22038   0.0127   1.0000   0.0727
 -19.250  -0.5815   0.23219   0.22412   0.0139   1.0000   0.0708
 -19.500  -0.6003   0.24316   0.23516   0.0134   1.0000   0.0687
 -19.750  -0.6089   0.24768   0.23963   0.0151   1.0000   0.0682
 -20.000  -0.6109   0.24627   0.23818   0.0178   1.0000   0.0679
