  
       XFOIL         Version 6.99
  
 Calculated polar for: BE50 (original)                                 
  
 1 1 Reynolds number fixed          Mach number fixed         
  
 xtrf =   1.000 (top)        1.000 (bottom)  
 Mach =   0.000     Re =     0.050 e 6     Ncrit =   9.000
  
   alpha    CL        CD       CDp       CM     Top_Xtr  Bot_Xtr
  ------ -------- --------- --------- -------- -------- --------
   0.000   0.3261   0.02215   0.01241  -0.0789   1.0000   1.0000
   0.250   0.3465   0.02304   0.01316  -0.0793   1.0000   1.0000
   0.500   0.3796   0.02403   0.01403  -0.0821   0.9946   1.0000
   0.750   0.4392   0.02495   0.01481  -0.0894   0.9737   1.0000
   1.000   0.4972   0.02567   0.01546  -0.0959   0.9522   1.0000
   1.250   0.5527   0.02614   0.01592  -0.1014   0.9290   1.0000
   1.500   0.6024   0.02639   0.01620  -0.1054   0.9037   1.0000
   1.750   0.6534   0.02633   0.01621  -0.1090   0.8779   1.0000
   2.000   0.7054   0.02591   0.01591  -0.1119   0.8522   1.0000
   2.250   0.7528   0.02525   0.01534  -0.1133   0.8257   1.0000
   2.500   0.7930   0.02464   0.01484  -0.1131   0.7968   1.0000
   2.750   0.8276   0.02422   0.01446  -0.1119   0.7656   1.0000
   3.000   0.8591   0.02399   0.01423  -0.1103   0.7338   1.0000
   3.250   0.8882   0.02399   0.01421  -0.1086   0.7024   1.0000
   3.500   0.9152   0.02424   0.01447  -0.1069   0.6723   1.0000
   3.750   0.9407   0.02469   0.01490  -0.1053   0.6437   1.0000
   4.000   0.9656   0.02527   0.01549  -0.1039   0.6167   1.0000
   4.250   0.9905   0.02591   0.01613  -0.1026   0.5920   1.0000
   4.500   1.0162   0.02650   0.01677  -0.1014   0.5691   1.0000
   4.750   1.0396   0.02739   0.01777  -0.1003   0.5459   1.0000
   5.000   1.0656   0.02809   0.01846  -0.0991   0.5255   1.0000
   5.250   1.0880   0.02922   0.01976  -0.0981   0.5040   1.0000
   5.500   1.1123   0.03018   0.02086  -0.0971   0.4842   1.0000
   5.750   1.1364   0.03123   0.02203  -0.0960   0.4655   1.0000
   6.000   1.1580   0.03250   0.02354  -0.0949   0.4461   1.0000
   6.250   1.1817   0.03357   0.02476  -0.0938   0.4278   1.0000
   6.500   1.2059   0.03466   0.02595  -0.0926   0.4095   1.0000
   6.750   1.2254   0.03598   0.02761  -0.0910   0.3875   1.0000
   7.000   1.2459   0.03539   0.02680  -0.0882   0.3496   1.0000
   7.250   1.2573   0.03440   0.02566  -0.0847   0.3026   1.0000
   7.500   1.2628   0.03371   0.02495  -0.0807   0.2530   1.0000
   7.750   1.2539   0.03482   0.02569  -0.0753   0.1751   1.0000
   8.000   1.2542   0.03793   0.02815  -0.0716   0.1267   1.0000
   8.250   1.2677   0.04088   0.03104  -0.0693   0.1065   1.0000
   8.500   1.2851   0.04381   0.03407  -0.0675   0.0950   1.0000
   8.750   1.3027   0.04685   0.03716  -0.0661   0.0867   1.0000
   9.000   1.3190   0.04998   0.04054  -0.0646   0.0810   1.0000
   9.250   1.3411   0.05424   0.04482  -0.0640   0.0776   1.0000
   9.500   1.3479   0.05834   0.04948  -0.0618   0.0766   1.0000
   9.750   1.3492   0.06273   0.05440  -0.0595   0.0762   1.0000
  10.000   1.3449   0.06728   0.05941  -0.0572   0.0761   1.0000
  10.250   1.3349   0.07187   0.06439  -0.0549   0.0762   1.0000
  10.500   1.3197   0.07627   0.06910  -0.0525   0.0764   1.0000
  10.750   1.3011   0.08080   0.07388  -0.0507   0.0767   1.0000
  11.000   1.2818   0.08575   0.07905  -0.0499   0.0771   1.0000
  11.250   1.2626   0.09124   0.08471  -0.0502   0.0775   1.0000
  11.500   1.1690   0.10536   0.09936  -0.0623   0.0823   1.0000
  11.750   1.1253   0.11961   0.11364  -0.0723   0.0861   1.0000
  12.000   1.1059   0.12997   0.12397  -0.0780   0.0881   1.0000
  12.250   1.0969   0.13811   0.13203  -0.0815   0.0893   1.0000
  12.250   1.0969   0.13811   0.13203  -0.0815   0.0893   1.0000
  12.350   1.0955   0.14088   0.13479  -0.0825   0.0896   1.0000
  12.750   1.0609   0.16257   0.15630  -0.0958   0.1017   1.0000
  12.850   1.0624   0.16483   0.15856  -0.0964   0.1020   1.0000
  12.950   1.0651   0.16696   0.16069  -0.0966   0.1023   1.0000
  13.250   1.0532   0.18291   0.17656  -0.1058   0.1281   1.0000
  13.500   1.0308   0.19893   0.19252  -0.1200   0.1974   1.0000
  13.750   1.0365   0.20415   0.19772  -0.1217   0.1955   1.0000
  14.000   1.0289   0.20627   0.19978  -0.1255   0.1917   1.0000
  14.250   1.0373   0.21034   0.20387  -0.1266   0.1855   1.0000
  14.500   1.0632   0.21939   0.21299  -0.1251   0.1824   1.0000
  14.750   1.0512   0.21966   0.21318  -0.1299   0.1809   1.0000
  15.000   1.0511   0.22215   0.21565  -0.1331   0.1761   1.0000
  15.250   1.0606   0.22640   0.21992  -0.1342   0.1719   1.0000
  15.500   1.0839   0.23555   0.22915  -0.1328   0.1689   1.0000
  15.750   1.0757   0.23536   0.22887  -0.1377   0.1671   1.0000
  16.000   1.0777   0.23761   0.23110  -0.1409   0.1621   1.0000
  16.250   1.0899   0.24236   0.23589  -0.1414   0.1572   1.0000
  16.500   1.1013   0.24841   0.24198  -0.1423   0.1544   1.0000
  16.750   1.0994   0.24883   0.24235  -0.1467   0.1501   1.0000
  17.000   1.1093   0.25277   0.24632  -0.1479   0.1446   1.0000
  17.250   1.1286   0.26213   0.25573  -0.1467   0.1414   1.0000
  17.500   1.1236   0.26049   0.25403  -0.1522   0.1392   1.0000
  17.750   1.1292   0.26306   0.25660  -0.1550   0.1347   1.0000
  18.000   1.1397   0.26737   0.26093  -0.1561   0.1308   1.0000
  18.250   1.1592   0.27807   0.27168  -0.1546   0.1282   1.0000
  18.500   1.1551   0.27539   0.26894  -0.1603   0.1267   1.0000
  18.750   1.1598   0.27720   0.27075  -0.1637   0.1226   1.0000
  19.000   1.1689   0.28088   0.27445  -0.1654   0.1188   1.0000
  19.250   1.1852   0.28955   0.28319  -0.1643   0.1157   1.0000
  19.500   1.1889   0.29133   0.28492  -0.1679   0.1145   1.0000
  19.750   1.1913   0.29119   0.28479  -0.1725   0.1114   1.0000
  20.000   1.1992   0.29424   0.28786  -0.1748   0.1071   1.0000
   0.000   0.3261   0.02215   0.01241  -0.0789   1.0000   1.0000
  -0.250   0.3051   0.02135   0.01177  -0.0785   1.0000   1.0000
  -0.500   0.2835   0.02061   0.01127  -0.0782   1.0000   1.0000
  -0.750   0.2612   0.01995   0.01087  -0.0779   1.0000   1.0000
  -1.000   0.2379   0.01936   0.01062  -0.0776   1.0000   1.0000
  -1.250   0.2129   0.01883   0.01064  -0.0772   1.0000   1.0000
  -1.500   0.2041   0.02103   0.01129  -0.0818   1.0000   0.3972
  -1.750   0.1661   0.02300   0.01224  -0.0801   1.0000   0.2171
  -2.000   0.1359   0.02402   0.01329  -0.0797   1.0000   0.1872
  -2.250   0.1068   0.02488   0.01435  -0.0793   1.0000   0.1679
  -2.500   0.0776   0.02604   0.01568  -0.0788   1.0000   0.1598
  -2.750   0.0473   0.02758   0.01758  -0.0781   1.0000   0.1565
  -3.000   0.0146   0.02945   0.01993  -0.0769   1.0000   0.1559
  -3.250  -0.0193   0.03160   0.02263  -0.0751   1.0000   0.1538
  -3.500  -0.0530   0.03426   0.02574  -0.0729   1.0000   0.1554
  -3.750  -0.0958   0.03848   0.03068  -0.0682   1.0000   0.1746
  -3.750  -0.0958   0.03848   0.03068  -0.0682   1.0000   0.1745
  -4.250  -0.3002   0.05898   0.05339  -0.0029   1.0000   0.4400
  -4.500  -0.3041   0.06155   0.05587  -0.0078   1.0000   0.4073
  -4.750  -0.3094   0.06415   0.05840  -0.0115   1.0000   0.3775
  -5.000  -0.3169   0.06649   0.06069  -0.0124   1.0000   0.3499
  -5.250  -0.3238   0.06897   0.06311  -0.0125   1.0000   0.3259
  -5.500  -0.3312   0.07170   0.06578  -0.0143   1.0000   0.3073
  -5.750  -0.3385   0.07466   0.06869  -0.0162   1.0000   0.2911
  -6.000  -0.3454   0.07764   0.07161  -0.0174   1.0000   0.2759
  -6.250  -0.3520   0.08059   0.07453  -0.0182   1.0000   0.2610
  -6.500  -0.3580   0.08349   0.07736  -0.0188   1.0000   0.2462
  -6.500  -0.3580   0.08349   0.07736  -0.0188   1.0000   0.2462
  -6.600  -0.3556   0.08383   0.07765  -0.0157   1.0000   0.2420
  -6.700  -0.3573   0.08467   0.07847  -0.0156   1.0000   0.2353
  -7.000  -0.3613   0.08786   0.08156  -0.0155   1.0000   0.2216
  -7.250  -0.3663   0.09106   0.08468  -0.0159   1.0000   0.2133
  -7.500  -0.3755   0.09447   0.08806  -0.0173   1.0000   0.2031
  -7.750  -0.3710   0.09627   0.08972  -0.0149   1.0000   0.1976
  -8.000  -0.3844   0.10046   0.09391  -0.0167   1.0000   0.1883
  -8.250  -0.3781   0.10219   0.09549  -0.0154   1.0000   0.1848
  -8.500  -0.3771   0.10408   0.09729  -0.0148   1.0000   0.1775
  -8.750  -0.3930   0.10951   0.10272  -0.0159   1.0000   0.1718
  -9.000  -0.3834   0.10979   0.10287  -0.0136   1.0000   0.1670
  -9.250  -0.4085   0.11706   0.11021  -0.0161   1.0000   0.1578
  -9.500  -0.3958   0.11650   0.10951  -0.0129   1.0000   0.1555
  -9.750  -0.3979   0.11868   0.11164  -0.0118   1.0000   0.1486
 -10.000  -0.4174   0.12543   0.11840  -0.0133   1.0000   0.1430
 -10.250  -0.4090   0.12534   0.11820  -0.0103   1.0000   0.1403
 -10.500  -0.4123   0.12781   0.12063  -0.0090   1.0000   0.1350
 -10.750  -0.4417   0.13741   0.13030  -0.0119   1.0000   0.1290
 -11.000  -0.4319   0.13673   0.12950  -0.0086   1.0000   0.1281
 -11.250  -0.4287   0.13750   0.13021  -0.0062   1.0000   0.1248
 -11.500  -0.4340   0.14039   0.13307  -0.0052   1.0000   0.1203
 -11.750  -0.4645   0.15119   0.14393  -0.0079   1.0000   0.1148
 -12.000  -0.4564   0.15044   0.14310  -0.0049   1.0000   0.1142
 -12.250  -0.4526   0.15064   0.14323  -0.0022   1.0000   0.1120
 -12.500  -0.4565   0.15303   0.14560  -0.0007   1.0000   0.1078
 -12.750  -0.4668   0.15718   0.14978  -0.0005   1.0000   0.1031
 -13.000  -0.4830   0.16468   0.15727  -0.0009   1.0000   0.1003
 -13.250  -0.4792   0.16431   0.15684   0.0019   1.0000   0.0991
 -13.500  -0.4817   0.16596   0.15845   0.0039   1.0000   0.0961
 -13.750  -0.4882   0.16894   0.16142   0.0052   1.0000   0.0928
 -14.000  -0.4971   0.17272   0.16520   0.0060   1.0000   0.0898
 -14.250  -0.5242   0.18525   0.17777   0.0041   1.0000   0.0866
 -14.500  -0.5207   0.18440   0.17686   0.0068   1.0000   0.0863
 -14.750  -0.5202   0.18417   0.17658   0.0095   1.0000   0.0854
 -15.000  -0.5239   0.18549   0.17788   0.0118   1.0000   0.0835
 -15.250  -0.5305   0.18814   0.18051   0.0135   1.0000   0.0809
 -15.500  -0.5383   0.19127   0.18363   0.0149   1.0000   0.0784
 -15.750  -0.5472   0.19490   0.18725   0.0160   1.0000   0.0760
 -16.000  -0.5607   0.20145   0.19386   0.0160   1.0000   0.0736
 -16.250  -0.5751   0.20984   0.20224   0.0164   1.0000   0.0725
 -16.500  -0.5753   0.20850   0.20086   0.0193   1.0000   0.0720
 -16.750  -0.5789   0.20850   0.20082   0.0221   1.0000   0.0708
 -17.000  -0.5857   0.21046   0.20276   0.0244   1.0000   0.0687
 -17.250  -0.5938   0.21329   0.20559   0.0262   1.0000   0.0663
 -17.500  -0.6024   0.21646   0.20875   0.0278   1.0000   0.0642
 -17.750  -0.6115   0.22001   0.21230   0.0291   1.0000   0.0623
 -18.000  -0.6220   0.22481   0.21711   0.0300   1.0000   0.0607
 -18.250  -0.6431   0.24003   0.23235   0.0289   1.0000   0.0591
 -18.500  -0.6453   0.23858   0.23087   0.0318   1.0000   0.0589
 -18.750  -0.6492   0.23764   0.22990   0.0347   1.0000   0.0586
 -19.000  -0.6550   0.23771   0.22994   0.0376   1.0000   0.0580
 -19.250  -0.6625   0.23913   0.23136   0.0402   1.0000   0.0569
 -19.500  -0.6710   0.24155   0.23380   0.0424   1.0000   0.0555
 -19.750  -0.6796   0.24436   0.23662   0.0445   1.0000   0.0541
 -20.000  -0.6885   0.24734   0.23960   0.0464   1.0000   0.0527
