  
       XFOIL         Version 6.99
  
 Calculated polar for: FX 68-H-120                                     
  
 1 1 Reynolds number fixed          Mach number fixed         
  
 xtrf =   1.000 (top)        1.000 (bottom)  
 Mach =   0.000     Re =     0.050 e 6     Ncrit =   9.000
  
   alpha    CL        CD       CDp       CM     Top_Xtr  Bot_Xtr
  ------ -------- --------- --------- -------- -------- --------
   0.000  -0.0359   0.02547   0.01605  -0.0091   0.9897   1.0000
   0.250   0.0411   0.02711   0.01749  -0.0198   0.9623   1.0000
   0.500   0.1123   0.02838   0.01861  -0.0287   0.9338   1.0000
   0.750   0.1813   0.02926   0.01942  -0.0365   0.9045   1.0000
   1.000   0.2497   0.02972   0.01983  -0.0434   0.8752   1.0000
   1.250   0.3217   0.02966   0.01978  -0.0502   0.8460   1.0000
   1.500   0.3855   0.02906   0.01920  -0.0547   0.8169   1.0000
   1.750   0.4344   0.02817   0.01833  -0.0560   0.7880   1.0000
   2.000   0.4693   0.02731   0.01748  -0.0548   0.7572   1.0000
   2.250   0.5021   0.02629   0.01644  -0.0531   0.7268   1.0000
   2.500   0.5330   0.02521   0.01532  -0.0509   0.6960   1.0000
   2.750   0.5628   0.02418   0.01421  -0.0485   0.6645   1.0000
   3.000   0.5916   0.02331   0.01317  -0.0461   0.6324   1.0000
   3.250   0.6165   0.02301   0.01264  -0.0437   0.5979   1.0000
   3.500   0.6405   0.02310   0.01248  -0.0416   0.5647   1.0000
   3.750   0.6640   0.02355   0.01267  -0.0399   0.5345   1.0000
   4.000   0.6866   0.02426   0.01317  -0.0384   0.5071   1.0000
   4.250   0.7098   0.02507   0.01378  -0.0371   0.4839   1.0000
   4.500   0.7314   0.02604   0.01472  -0.0359   0.4632   1.0000
   4.750   0.7541   0.02700   0.01559  -0.0349   0.4455   1.0000
   5.000   0.7765   0.02801   0.01653  -0.0339   0.4297   1.0000
   5.250   0.7977   0.02911   0.01764  -0.0328   0.4156   1.0000
   5.500   0.8178   0.03039   0.01905  -0.0318   0.4039   1.0000
   5.750   0.8383   0.03172   0.02046  -0.0309   0.3939   1.0000
   6.000   0.8614   0.03289   0.02160  -0.0301   0.3846   1.0000
   6.250   0.8759   0.03453   0.02351  -0.0287   0.3755   1.0000
   6.500   0.8972   0.03587   0.02487  -0.0278   0.3679   1.0000
   6.750   0.9090   0.03783   0.02715  -0.0263   0.3609   1.0000
   7.000   0.9313   0.03931   0.02868  -0.0256   0.3558   1.0000
   7.250   0.9368   0.04192   0.03164  -0.0239   0.3514   1.0000
   7.500   0.9405   0.04465   0.03466  -0.0221   0.3472   1.0000
   7.750   0.9541   0.04673   0.03688  -0.0209   0.3428   1.0000
   8.000   0.9623   0.04931   0.03963  -0.0195   0.3390   1.0000
   8.250   0.9379   0.05409   0.04471  -0.0168   0.3367   1.0000
   8.500   0.8955   0.06049   0.05128  -0.0142   0.3362   1.0000
   8.750   0.8299   0.06934   0.06008  -0.0128   0.3387   1.0000
   8.750   0.8299   0.06934   0.06008  -0.0128   0.3387   1.0000
   8.850   0.8163   0.07242   0.06315  -0.0132   0.3396   1.0000
   9.000   0.6874   0.09177   0.08214  -0.0234   0.3682   1.0000
  10.000   0.5889   0.11937   0.10969  -0.0382   0.4849   1.0000
   9.750   0.5713   0.11573   0.10596  -0.0377   0.4910   1.0000
   9.850   0.5825   0.11726   0.10754  -0.0380   0.4883   1.0000
   9.950   0.5991   0.11951   0.10986  -0.0387   0.4865   1.0000
  10.000   0.5889   0.11937   0.10969  -0.0382   0.4849   1.0000
  10.100   0.5810   0.11953   0.10984  -0.0376   0.4787   1.0000
  10.200   0.5905   0.12086   0.11121  -0.0378   0.4748   1.0000
  10.500   0.5957   0.12390   0.11429  -0.0376   0.4629   1.0000
  10.350   0.6141   0.12411   0.11453  -0.0386   0.4715   1.0000
  10.450   0.5932   0.12342   0.11379  -0.0376   0.4655   1.0000
  10.750   0.6250   0.12837   0.11887  -0.0385   0.4574   1.0000
  11.000   0.6125   0.12959   0.12008  -0.0379   0.4473   1.0000
  11.250   0.6413   0.13434   0.12496  -0.0388   0.4427   1.0000
  11.000   0.6125   0.12960   0.12008  -0.0379   0.4473   1.0000
  11.100   0.6216   0.13111   0.12163  -0.0381   0.4450   1.0000
  11.200   0.6340   0.13311   0.12369  -0.0385   0.4433   1.0000
  11.500   0.6272   0.13531   0.12590  -0.0384   0.4330   1.0000
  11.750   0.6540   0.13996   0.13071  -0.0391   0.4283   1.0000
  12.000   0.6415   0.14099   0.13174  -0.0390   0.4191   1.0000
  11.750   0.6540   0.13995   0.13070  -0.0391   0.4283   1.0000
  11.850   0.6424   0.14000   0.13072  -0.0390   0.4255   1.0000
  11.950   0.6391   0.14043   0.13115  -0.0389   0.4208   1.0000
  12.250   0.6722   0.14613   0.13703  -0.0396   0.4135   1.0000
  12.500   0.6582   0.14671   0.13759  -0.0396   0.4036   1.0000
  12.750   0.6863   0.15185   0.14290  -0.0402   0.3990   1.0000
  13.000   0.6716   0.15241   0.14343  -0.0405   0.3909   1.0000
  13.250   0.6904   0.15636   0.14752  -0.0410   0.3856   1.0000
  13.500   0.6887   0.15865   0.14985  -0.0417   0.3805   1.0000
  13.750   0.6968   0.16131   0.15261  -0.0423   0.3735   1.0000
  14.000   0.7231   0.16688   0.15842  -0.0428   0.3698   1.0000
  14.250   0.7090   0.16687   0.15839  -0.0437   0.3619   1.0000
  14.500   0.7294   0.17118   0.16290  -0.0440   0.3562   1.0000
  14.750   0.7262   0.17296   0.16472  -0.0451   0.3508   1.0000
  15.000   0.7444   0.17679   0.16876  -0.0451   0.3391   1.0000
  15.250   0.7509   0.17869   0.17079  -0.0453   0.3238   1.0000
  15.750   0.8400   0.15578   0.14865  -0.0248   0.0989   1.0000
  16.000   0.8504   0.15729   0.15018  -0.0248   0.0900   1.0000
  16.250   0.8381   0.16617   0.15896  -0.0290   0.0884   1.0000
  16.500   0.8316   0.17353   0.16624  -0.0324   0.0868   1.0000
  16.750   0.8289   0.17998   0.17264  -0.0353   0.0852   1.0000
  17.000   0.8283   0.18595   0.17857  -0.0380   0.0844   1.0000
  17.250   0.8279   0.19184   0.18441  -0.0408   0.0846   1.0000
  17.500   0.8281   0.19757   0.19010  -0.0436   0.0856   1.0000
  17.750   0.8300   0.20302   0.19550  -0.0462   0.0867   1.0000
  18.000   0.8341   0.20805   0.20051  -0.0484   0.0882   1.0000
  18.250   0.8406   0.21284   0.20530  -0.0501   0.0896   1.0000
  18.500   0.8520   0.21747   0.20995  -0.0509   0.0907   1.0000
  18.250   0.8406   0.21284   0.20530  -0.0501   0.0896   1.0000
  18.350   0.8447   0.21466   0.20712  -0.0505   0.0901   1.0000
  18.450   0.8497   0.21653   0.20901  -0.0507   0.0906   1.0000
  19.000   0.6126   0.20563   0.19909  -0.0428   0.1452   1.0000
  19.250   0.6193   0.20946   0.20297  -0.0437   0.1433   1.0000
  19.500   0.6336   0.21578   0.20934  -0.0439   0.1416   1.0000
  19.750   0.6344   0.21887   0.21243  -0.0456   0.1412   1.0000
  20.000   0.6316   0.22074   0.21429  -0.0477   0.1406   1.0000
   0.000  -0.0359   0.02547   0.01605  -0.0091   0.9897   1.0000
  -0.250  -0.0761   0.02439   0.01518  -0.0049   1.0000   1.0000
  -0.500  -0.0886   0.02391   0.01486  -0.0061   1.0000   1.0000
  -0.750  -0.1013   0.02350   0.01465  -0.0075   1.0000   1.0000
  -1.000  -0.1141   0.02316   0.01454  -0.0090   1.0000   1.0000
  -1.250  -0.1271   0.02289   0.01457  -0.0106   1.0000   1.0000
  -1.500  -0.1402   0.02268   0.01473  -0.0121   1.0000   1.0000
  -1.750  -0.2818   0.02408   0.01455   0.0071   1.0000   0.4919
  -1.500  -0.2587   0.02321   0.01425   0.0079   1.0000   0.5709
  -1.600  -0.2675   0.02364   0.01436   0.0075   1.0000   0.5311
  -1.700  -0.2769   0.02395   0.01448   0.0072   1.0000   0.5034
  -2.000  -0.3066   0.02466   0.01494   0.0069   1.0000   0.4502
  -2.250  -0.3320   0.02517   0.01542   0.0068   1.0000   0.4215
  -2.500  -0.3564   0.02575   0.01599   0.0065   1.0000   0.3992
  -2.750  -0.3794   0.02639   0.01673   0.0059   1.0000   0.3796
  -3.000  -0.4019   0.02712   0.01760   0.0052   1.0000   0.3633
  -3.250  -0.4231   0.02791   0.01853   0.0043   1.0000   0.3465
  -3.500  -0.4439   0.02880   0.01960   0.0032   1.0000   0.3304
  -3.750  -0.4636   0.02975   0.02067   0.0020   1.0000   0.3126
  -4.000  -0.4829   0.03083   0.02179   0.0006   1.0000   0.2941
  -4.250  -0.5001   0.03198   0.02330  -0.0011   1.0000   0.2711
  -4.500  -0.5162   0.03316   0.02460  -0.0031   1.0000   0.2446
  -4.750  -0.5306   0.03443   0.02597  -0.0054   1.0000   0.2149
  -5.000  -0.5439   0.03592   0.02757  -0.0078   1.0000   0.1855
  -5.250  -0.5574   0.03740   0.02903  -0.0102   1.0000   0.1605
  -5.500  -0.5682   0.03977   0.03179  -0.0127   1.0000   0.1437
  -5.750  -0.5790   0.04173   0.03394  -0.0151   1.0000   0.1307
  -6.000  -0.5846   0.04510   0.03783  -0.0178   1.0000   0.1246
  -6.250  -0.5935   0.04746   0.04025  -0.0201   1.0000   0.1183
  -6.500  -0.5891   0.05163   0.04498  -0.0229   1.0000   0.1164
  -6.750  -0.5823   0.05564   0.04935  -0.0255   1.0000   0.1151
  -7.000  -0.5725   0.05959   0.05355  -0.0279   1.0000   0.1150
  -7.250  -0.5596   0.06344   0.05756  -0.0304   1.0000   0.1156
  -7.500  -0.5455   0.06701   0.06122  -0.0329   1.0000   0.1168
  -7.750  -0.5312   0.07034   0.06459  -0.0354   1.0000   0.1179
  -8.000  -0.5228   0.07348   0.06771  -0.0379   1.0000   0.1191
  -8.250  -0.3692   0.09107   0.08504  -0.0169   1.0000   0.3010
  -8.500  -0.3922   0.09566   0.08967  -0.0192   1.0000   0.2789
  -8.750  -0.3735   0.09730   0.09117  -0.0179   1.0000   0.2700
  -9.000  -0.3832   0.10160   0.09544  -0.0180   1.0000   0.2631
  -9.250  -0.4004   0.10617   0.10002  -0.0190   1.0000   0.2499
  -9.500  -0.3781   0.10753   0.10122  -0.0163   1.0000   0.2447
  -9.750  -0.3919   0.11189   0.10557  -0.0167   1.0000   0.2340
 -10.000  -0.3994   0.11525   0.10890  -0.0166   1.0000   0.2221
 -10.250  -0.3916   0.11811   0.11166  -0.0145   1.0000   0.2176
 -10.500  -0.3947   0.12122   0.11473  -0.0135   1.0000   0.2102
 -10.750  -0.4138   0.12695   0.12046  -0.0138   1.0000   0.2055
 -11.000  -0.3997   0.12824   0.12166  -0.0110   1.0000   0.2004
 -11.250  -0.4140   0.13261   0.12603  -0.0110   1.0000   0.1935
 -11.500  -0.4205   0.13688   0.13026  -0.0098   1.0000   0.1903
 -11.750  -0.4136   0.13862   0.13193  -0.0075   1.0000   0.1844
 -12.000  -0.4427   0.14587   0.13921  -0.0088   1.0000   0.1767
 -12.250  -0.4293   0.14643   0.13969  -0.0056   1.0000   0.1745
 -12.500  -0.4308   0.14899   0.14221  -0.0040   1.0000   0.1679
 -12.750  -0.4566   0.15593   0.14922  -0.0047   1.0000   0.1630
 -13.000  -0.4533   0.15828   0.15150  -0.0023   1.0000   0.1614
 -13.250  -0.4482   0.15949   0.15265   0.0003   1.0000   0.1573
 -13.500  -0.4559   0.16285   0.15599   0.0015   1.0000   0.1526
 -13.750  -0.4800   0.17006   0.16324   0.0011   1.0000   0.1486
 -14.000  -0.4808   0.17281   0.16593   0.0033   1.0000   0.1472
 -14.250  -0.4759   0.17325   0.16631   0.0061   1.0000   0.1440
 -14.500  -0.4826   0.17627   0.16930   0.0077   1.0000   0.1393
 -14.750  -0.5008   0.18208   0.17514   0.0079   1.0000   0.1349
 -15.000  -0.5095   0.18663   0.17965   0.0094   1.0000   0.1330
 -15.250  -0.5067   0.18677   0.17974   0.0124   1.0000   0.1306
 -15.500  -0.5129   0.18938   0.18232   0.0143   1.0000   0.1258
 -15.750  -0.5274   0.19416   0.18711   0.0149   1.0000   0.1215
 -16.000  -0.5449   0.20175   0.19469   0.0154   1.0000   0.1194
 -16.250  -0.5417   0.20095   0.19383   0.0187   1.0000   0.1182
 -16.500  -0.5457   0.20257   0.19542   0.0212   1.0000   0.1150
 -16.750  -0.5543   0.20560   0.19844   0.0230   1.0000   0.1116
 -17.000  -0.5662   0.20975   0.20262   0.0241   1.0000   0.1085
 -17.250  -0.5928   0.22157   0.21447   0.0234   1.0000   0.1061
 -17.500  -0.5882   0.21916   0.21199   0.0270   1.0000   0.1054
 -17.750  -0.5900   0.21918   0.21198   0.0301   1.0000   0.1036
 -18.000  -0.5971   0.22149   0.21426   0.0324   1.0000   0.1007
 -18.250  -0.6064   0.22459   0.21736   0.0342   1.0000   0.0978
 -18.500  -0.6178   0.22857   0.22133   0.0355   1.0000   0.0952
 -18.750  -0.6436   0.24198   0.23477   0.0346   1.0000   0.0929
 -19.000  -0.6416   0.23924   0.23197   0.0382   1.0000   0.0924
 -19.250  -0.6436   0.23827   0.23096   0.0416   1.0000   0.0911
 -19.500  -0.6506   0.24011   0.23279   0.0442   1.0000   0.0888
 -19.750  -0.6594   0.24288   0.23555   0.0462   1.0000   0.0858
 -20.000  -0.6698   0.24639   0.23906   0.0478   1.0000   0.0829
