  
       XFOIL         Version 6.99
  
 Calculated polar for: E474  (14.09%)                                  
  
 1 1 Reynolds number fixed          Mach number fixed         
  
 xtrf =   1.000 (top)        1.000 (bottom)  
 Mach =   0.000     Re =     0.050 e 6     Ncrit =   9.000
  
   alpha    CL        CD       CDp       CM     Top_Xtr  Bot_Xtr
  ------ -------- --------- --------- -------- -------- --------
   0.000  -0.0000   0.02262   0.01514   0.0000   0.8497   0.8496
   0.250   0.1615   0.02281   0.01467  -0.0164   0.7247   0.9144
   0.500   0.2552   0.02338   0.01450  -0.0266   0.6393   0.9644
   0.750   0.3384   0.02317   0.01382  -0.0376   0.5858   1.0000
   1.000   0.3507   0.02322   0.01368  -0.0364   0.5648   1.0000
   1.250   0.3667   0.02343   0.01372  -0.0354   0.5459   1.0000
   1.500   0.3842   0.02376   0.01393  -0.0343   0.5292   1.0000
   1.750   0.4023   0.02419   0.01427  -0.0332   0.5138   1.0000
   2.000   0.4208   0.02470   0.01471  -0.0321   0.4999   1.0000
   2.250   0.4401   0.02528   0.01516  -0.0309   0.4879   1.0000
   2.500   0.4590   0.02594   0.01582  -0.0297   0.4761   1.0000
   2.750   0.4777   0.02672   0.01661  -0.0286   0.4651   1.0000
   3.000   0.4979   0.02742   0.01719  -0.0272   0.4553   1.0000
   3.250   0.5150   0.02839   0.01831  -0.0260   0.4450   1.0000
   3.500   0.5350   0.02926   0.01908  -0.0247   0.4369   1.0000
   3.750   0.5507   0.03042   0.02043  -0.0233   0.4275   1.0000
   4.000   0.5710   0.03133   0.02122  -0.0219   0.4199   1.0000
   4.250   0.5839   0.03283   0.02299  -0.0205   0.4117   1.0000
   4.500   0.6030   0.03389   0.02401  -0.0190   0.4047   1.0000
   4.750   0.6146   0.03561   0.02592  -0.0174   0.3976   1.0000
   5.000   0.6285   0.03707   0.02748  -0.0157   0.3902   1.0000
   5.250   0.6458   0.03848   0.02888  -0.0142   0.3844   1.0000
   5.500   0.6475   0.04111   0.03182  -0.0123   0.3787   1.0000
   5.750   0.6593   0.04286   0.03364  -0.0105   0.3724   1.0000
   6.000   0.6721   0.04468   0.03549  -0.0088   0.3667   1.0000
   6.250   0.6610   0.04847   0.03956  -0.0067   0.3630   1.0000
   6.500   0.6481   0.05248   0.04373  -0.0049   0.3604   1.0000
   6.750   0.6273   0.05708   0.04843  -0.0034   0.3590   1.0000
   7.000   0.5886   0.06329   0.05466  -0.0027   0.3613   1.0000
   7.250   0.5594   0.06883   0.06016  -0.0025   0.3650   1.0000
   7.500   0.5596   0.07292   0.06424  -0.0026   0.3677   1.0000
   7.500   0.5596   0.07292   0.06424  -0.0026   0.3677   1.0000
   8.500   0.4159   0.09874   0.08986  -0.0167   0.4916   1.0000
   8.250   0.4170   0.09729   0.08842  -0.0180   0.5072   1.0000
   8.350   0.3927   0.09625   0.08733  -0.0163   0.4996   1.0000
   8.450   0.4049   0.09758   0.08868  -0.0164   0.4935   1.0000
   8.750   0.4102   0.10046   0.09156  -0.0157   0.4782   1.0000
   8.500   0.4159   0.09875   0.08986  -0.0167   0.4916   1.0000
   8.600   0.4140   0.09980   0.09090  -0.0165   0.4880   1.0000
   8.700   0.4059   0.09986   0.09093  -0.0157   0.4806   1.0000
   9.000   0.4189   0.10343   0.09452  -0.0155   0.4680   1.0000
   9.500   0.4414   0.10885   0.09996  -0.0148   0.4411   1.0000
   9.750   0.4408   0.11129   0.10239  -0.0145   0.4303   1.0000
  10.000   0.4790   0.11658   0.10777  -0.0149   0.4206   1.0000
  10.250   0.4597   0.11701   0.10814  -0.0143   0.4080   1.0000
  10.500   0.4667   0.12015   0.11129  -0.0144   0.3986   1.0000
  10.750   0.4860   0.12368   0.11487  -0.0143   0.3875   1.0000
  11.000   0.4771   0.12565   0.11680  -0.0145   0.3786   1.0000
  11.250   0.5161   0.13158   0.12285  -0.0145   0.3686   1.0000
  11.000   0.4771   0.12565   0.11680  -0.0145   0.3786   1.0000
  11.100   0.4824   0.12681   0.11799  -0.0145   0.3740   1.0000
  11.200   0.4997   0.12919   0.12041  -0.0144   0.3700   1.0000
  11.500   0.4913   0.13143   0.12263  -0.0148   0.3584   1.0000
  11.750   0.5317   0.13827   0.12956  -0.0149   0.3510   1.0000
  12.000   0.5041   0.13745   0.12868  -0.0154   0.3414   1.0000
  12.250   0.5406   0.14412   0.13543  -0.0154   0.3336   1.0000
  12.500   0.5174   0.14347   0.13474  -0.0162   0.3240   1.0000
  13.000   0.5295   0.14971   0.14102  -0.0174   0.3099   1.0000
  13.250   0.5568   0.15508   0.14647  -0.0172   0.3008   1.0000
  13.500   0.5446   0.15621   0.14756  -0.0186   0.2952   1.0000
  13.750   0.5542   0.15927   0.15065  -0.0191   0.2868   1.0000
  14.000   0.5715   0.16472   0.15615  -0.0195   0.2817   1.0000
  14.250   0.5627   0.16507   0.15648  -0.0210   0.2730   1.0000
  14.500   0.5945   0.17235   0.16387  -0.0206   0.2665   1.0000
  14.750   0.5780   0.17196   0.16342  -0.0228   0.2621   1.0000
  15.000   0.5867   0.17482   0.16632  -0.0234   0.2534   1.0000
  14.750   0.5780   0.17196   0.16342  -0.0228   0.2621   1.0000
  14.850   0.5780   0.17261   0.16408  -0.0233   0.2584   1.0000
  14.950   0.5827   0.17391   0.16539  -0.0235   0.2549   1.0000
  15.250   0.6108   0.18213   0.17369  -0.0235   0.2489   1.0000
  15.500   0.5958   0.18083   0.17234  -0.0260   0.2426   1.0000
  15.750   0.6131   0.18534   0.17691  -0.0261   0.2350   1.0000
  16.000   0.6219   0.18991   0.18149  -0.0272   0.2318   1.0000
  16.250   0.6167   0.19016   0.18172  -0.0294   0.2247   1.0000
  16.500   0.6391   0.19626   0.18791  -0.0291   0.2178   1.0000
  16.750   0.6387   0.19858   0.19021  -0.0311   0.2151   1.0000
  17.000   0.6383   0.19957   0.19119  -0.0331   0.2082   1.0000
  17.250   0.6600   0.20592   0.19761  -0.0328   0.2020   1.0000
  17.500   0.6606   0.20824   0.19991  -0.0349   0.1995   1.0000
  17.750   0.6601   0.20899   0.20064  -0.0372   0.1930   1.0000
  18.000   0.6763   0.21392   0.20563  -0.0374   0.1873   1.0000
  18.250   0.6873   0.21934   0.21105  -0.0385   0.1849   1.0000
  18.500   0.6824   0.21844   0.21013  -0.0416   0.1798   1.0000
  18.750   0.6932   0.22189   0.21361  -0.0425   0.1740   1.0000
  19.000   0.7189   0.23234   0.22411  -0.0419   0.1706   1.0000
  19.250   0.7080   0.22875   0.22047  -0.0457   0.1683   1.0000
  19.500   0.7129   0.23060   0.22232  -0.0477   0.1623   1.0000
  19.750   0.7274   0.23542   0.22718  -0.0481   0.1579   1.0000
  20.000   0.7416   0.24230   0.23407  -0.0489   0.1559   1.0000
   0.000  -0.0000   0.02262   0.01514   0.0000   0.8497   0.8496
  -0.250  -0.1616   0.02281   0.01467   0.0164   0.9145   0.7248
  -0.500  -0.2552   0.02338   0.01450   0.0266   0.9644   0.6392
  -0.750  -0.3384   0.02317   0.01382   0.0377   1.0000   0.5858
  -1.000  -0.3507   0.02322   0.01368   0.0364   1.0000   0.5648
  -1.250  -0.3668   0.02344   0.01372   0.0354   1.0000   0.5459
  -1.500  -0.3842   0.02377   0.01394   0.0344   1.0000   0.5292
  -1.750  -0.4024   0.02419   0.01428   0.0333   1.0000   0.5139
  -2.000  -0.4208   0.02471   0.01471   0.0321   1.0000   0.5001
  -2.250  -0.4402   0.02528   0.01516   0.0309   1.0000   0.4881
  -2.500  -0.4591   0.02594   0.01582   0.0297   1.0000   0.4761
  -2.750  -0.4778   0.02671   0.01661   0.0286   1.0000   0.4651
  -3.000  -0.4979   0.02742   0.01719   0.0272   1.0000   0.4554
  -3.250  -0.5151   0.02840   0.01831   0.0260   1.0000   0.4451
  -3.500  -0.5352   0.02926   0.01907   0.0247   1.0000   0.4371
  -3.750  -0.5508   0.03043   0.02044   0.0234   1.0000   0.4277
  -4.000  -0.5711   0.03133   0.02122   0.0219   1.0000   0.4198
  -4.250  -0.5839   0.03283   0.02299   0.0205   1.0000   0.4117
  -4.500  -0.6031   0.03389   0.02400   0.0190   1.0000   0.4047
  -4.750  -0.6146   0.03561   0.02592   0.0174   1.0000   0.3976
  -5.000  -0.6286   0.03707   0.02749   0.0157   1.0000   0.3902
  -5.250  -0.6457   0.03850   0.02890   0.0142   1.0000   0.3844
  -5.500  -0.6475   0.04111   0.03182   0.0123   1.0000   0.3788
  -5.750  -0.6594   0.04285   0.03364   0.0105   1.0000   0.3724
  -6.000  -0.6723   0.04467   0.03548   0.0088   1.0000   0.3667
  -6.250  -0.6610   0.04848   0.03956   0.0067   1.0000   0.3631
  -6.500  -0.6481   0.05247   0.04372   0.0049   1.0000   0.3604
  -6.750  -0.6277   0.05704   0.04839   0.0034   1.0000   0.3588
  -7.000  -0.5886   0.06324   0.05461   0.0027   1.0000   0.3611
  -7.250  -0.5592   0.06881   0.06014   0.0025   1.0000   0.3650
  -7.500  -0.5593   0.07292   0.06425   0.0026   1.0000   0.3677
  -8.750  -0.4094   0.10047   0.09155   0.0156   1.0000   0.4782
  -9.000  -0.4184   0.10346   0.09455   0.0154   1.0000   0.4682
  -9.500  -0.4404   0.10883   0.09995   0.0147   1.0000   0.4412
  -9.750  -0.4399   0.11130   0.10240   0.0144   1.0000   0.4303
 -10.000  -0.4771   0.11646   0.10766   0.0148   1.0000   0.4207
 -10.250  -0.4579   0.11697   0.10811   0.0142   1.0000   0.4084
 -10.000  -0.4771   0.11646   0.10766   0.0148   1.0000   0.4207
 -10.100  -0.4567   0.11590   0.10702   0.0145   1.0000   0.4172
 -10.200  -0.4536   0.11631   0.10743   0.0142   1.0000   0.4108
 -10.500  -0.4655   0.12013   0.11127   0.0142   1.0000   0.3986
 -10.250  -0.4579   0.11697   0.10811   0.0142   1.0000   0.4084
 -10.350  -0.4781   0.11944   0.11062   0.0143   1.0000   0.4043
 -10.450  -0.4774   0.12075   0.11192   0.0144   1.0000   0.4016
 -10.750  -0.4854   0.12372   0.11491   0.0142   1.0000   0.3875
 -11.000  -0.4762   0.12563   0.11679   0.0144   1.0000   0.3787
 -11.250  -0.5133   0.13132   0.12258   0.0144   1.0000   0.3687
 -11.000  -0.4762   0.12563   0.11679   0.0144   1.0000   0.3787
 -11.100  -0.4814   0.12680   0.11798   0.0143   1.0000   0.3740
 -11.200  -0.4964   0.12894   0.12015   0.0143   1.0000   0.3704
 -11.500  -0.4905   0.13141   0.12260   0.0146   1.0000   0.3582
 -11.750  -0.5309   0.13827   0.12956   0.0147   1.0000   0.3510
 -12.000  -0.5029   0.13741   0.12865   0.0153   1.0000   0.3415
 -12.250  -0.5406   0.14421   0.13552   0.0153   1.0000   0.3337
 -12.500  -0.5161   0.14343   0.13470   0.0161   1.0000   0.3242
 -12.750  -0.5551   0.15066   0.14205   0.0159   1.0000   0.3170
 -13.000  -0.5284   0.14966   0.14097   0.0173   1.0000   0.3099
 -13.250  -0.5550   0.15490   0.14629   0.0171   1.0000   0.3009
 -13.500  -0.5436   0.15616   0.14751   0.0185   1.0000   0.2953
 -13.750  -0.5530   0.15918   0.15057   0.0190   1.0000   0.2868
 -14.000  -0.5717   0.16483   0.15626   0.0193   1.0000   0.2819
 -14.250  -0.5614   0.16496   0.15637   0.0208   1.0000   0.2732
 -14.500  -0.5918   0.17190   0.16342   0.0205   1.0000   0.2666
 -14.750  -0.5769   0.17185   0.16330   0.0226   1.0000   0.2621
 -15.000  -0.5854   0.17465   0.16615   0.0233   1.0000   0.2534
 -15.250  -0.6109   0.18224   0.17379   0.0233   1.0000   0.2489
 -15.500  -0.5948   0.18070   0.17221   0.0258   1.0000   0.2429
 -15.750  -0.6110   0.18497   0.17654   0.0260   1.0000   0.2352
 -16.000  -0.6212   0.18982   0.18140   0.0270   1.0000   0.2318
 -16.250  -0.6156   0.18994   0.18150   0.0292   1.0000   0.2248
 -16.500  -0.6365   0.19563   0.18728   0.0290   1.0000   0.2180
 -16.750  -0.6380   0.19844   0.19006   0.0308   1.0000   0.2152
 -17.000  -0.6371   0.19929   0.19092   0.0329   1.0000   0.2083
 -17.250  -0.6577   0.20528   0.19697   0.0327   1.0000   0.2021
 -17.500  -0.6596   0.20798   0.19964   0.0347   1.0000   0.1995
 -17.750  -0.6589   0.20863   0.20029   0.0370   1.0000   0.1933
 -18.000  -0.6750   0.21349   0.20520   0.0372   1.0000   0.1873
 -18.250  -0.6860   0.21887   0.21059   0.0384   1.0000   0.1849
 -18.500  -0.6813   0.21803   0.20971   0.0414   1.0000   0.1800
 -18.750  -0.6919   0.22139   0.21311   0.0423   1.0000   0.1741
 -19.000  -0.7175   0.23177   0.22354   0.0417   1.0000   0.1706
 -19.250  -0.7067   0.22818   0.21990   0.0455   1.0000   0.1683
 -19.500  -0.7117   0.23002   0.22175   0.0475   1.0000   0.1625
 -19.750  -0.7259   0.23468   0.22644   0.0479   1.0000   0.1580
 -20.000  -0.7409   0.24189   0.23366   0.0486   1.0000   0.1559
