  
       XFOIL         Version 6.99
  
 Calculated polar for: E374                                            
  
 1 1 Reynolds number fixed          Mach number fixed         
  
 xtrf =   1.000 (top)        1.000 (bottom)  
 Mach =   0.000     Re =     0.050 e 6     Ncrit =   9.000
  
   alpha    CL        CD       CDp       CM     Top_Xtr  Bot_Xtr
  ------ -------- --------- --------- -------- -------- --------
   0.000  -0.0336   0.02613   0.01578  -0.0181   0.9732   1.0000
   0.250  -0.0033   0.02687   0.01633  -0.0200   0.9646   1.0000
   0.500   0.0333   0.02779   0.01708  -0.0230   0.9563   1.0000
   0.750   0.0570   0.02843   0.01758  -0.0237   0.9475   1.0000
   1.000   0.0869   0.02926   0.01829  -0.0254   0.9392   1.0000
   1.250   0.1166   0.03010   0.01903  -0.0271   0.9307   1.0000
   1.500   0.1395   0.03086   0.01972  -0.0275   0.9221   1.0000
   1.750   0.1745   0.03186   0.02064  -0.0300   0.9138   1.0000
   2.000   0.1920   0.03260   0.02134  -0.0295   0.9048   1.0000
   2.250   0.2184   0.03353   0.02223  -0.0306   0.8961   1.0000
   2.500   0.2485   0.03450   0.02320  -0.0322   0.8869   1.0000
   2.750   0.2655   0.03537   0.02406  -0.0316   0.8775   1.0000
   3.000   0.2930   0.03639   0.02509  -0.0327   0.8678   1.0000
   3.250   0.3253   0.03744   0.02617  -0.0345   0.8575   1.0000
   3.500   0.3401   0.03839   0.02717  -0.0336   0.8468   1.0000
   3.750   0.3623   0.03943   0.02826  -0.0339   0.8358   1.0000
   4.000   0.3889   0.04050   0.02939  -0.0346   0.8238   1.0000
   4.250   0.4169   0.04156   0.03054  -0.0355   0.8110   1.0000
   4.500   0.4453   0.04262   0.03169  -0.0364   0.7978   1.0000
   4.750   0.4710   0.04365   0.03288  -0.0367   0.7834   1.0000
   5.000   0.4943   0.04469   0.03403  -0.0367   0.7683   1.0000
   5.250   0.5163   0.04572   0.03519  -0.0364   0.7520   1.0000
   5.500   0.5411   0.04668   0.03631  -0.0363   0.7347   1.0000
   5.750   0.5764   0.04736   0.03724  -0.0371   0.7163   1.0000
   6.000   0.6087   0.04797   0.03807  -0.0372   0.6971   1.0000
   6.250   0.6313   0.04868   0.03897  -0.0362   0.6760   1.0000
   6.500   0.6768   0.04836   0.03902  -0.0366   0.6541   1.0000
   6.750   0.7238   0.04733   0.03837  -0.0363   0.6298   1.0000
   7.000   0.7727   0.04550   0.03700  -0.0353   0.6033   1.0000
   7.250   0.8787   0.03782   0.03011  -0.0348   0.5703   1.0000
   7.500   0.9313   0.03275   0.02550  -0.0307   0.5235   1.0000
   7.750   0.9623   0.02881   0.02160  -0.0249   0.4530   1.0000
   8.000   0.9623   0.02819   0.02030  -0.0176   0.3589   1.0000
   8.250   0.9514   0.03006   0.02121  -0.0114   0.2770   1.0000
   8.500   0.9446   0.03266   0.02311  -0.0066   0.2153   1.0000
   8.750   0.9523   0.03546   0.02537  -0.0037   0.1667   1.0000
   9.000   0.9789   0.03843   0.02809  -0.0030   0.1332   1.0000
   9.250   1.0167   0.04180   0.03151  -0.0035   0.1152   1.0000
   9.500   1.0386   0.04490   0.03488  -0.0026   0.1045   1.0000
   9.750   1.0686   0.04890   0.03894  -0.0029   0.0982   1.0000
  10.000   1.0777   0.05268   0.04323  -0.0006   0.0961   1.0000
  10.250   1.0770   0.05604   0.04711   0.0024   0.0942   1.0000
  10.500   1.0728   0.05944   0.05093   0.0053   0.0926   1.0000
  10.750   1.0648   0.06291   0.05476   0.0081   0.0915   1.0000
  11.000   1.0517   0.06643   0.05858   0.0110   0.0912   1.0000
  11.250   1.0326   0.06994   0.06234   0.0140   0.0913   1.0000
  11.500   1.0113   0.07388   0.06650   0.0159   0.0924   1.0000
  11.750   0.9880   0.07831   0.07111   0.0166   0.0935   1.0000
  12.000   0.9638   0.08329   0.07623   0.0162   0.0946   1.0000
  12.250   0.9432   0.08884   0.08189   0.0149   0.0958   1.0000
  12.500   0.9247   0.09485   0.08796   0.0131   0.0967   1.0000
  12.750   0.9155   0.10101   0.09416   0.0114   0.0976   1.0000
  13.000   0.8003   0.12602   0.11900  -0.0099   0.1206   1.0000
  13.250   0.8075   0.13137   0.12437  -0.0104   0.1235   1.0000
  13.250   0.8075   0.13136   0.12436  -0.0104   0.1235   1.0000
  13.750   0.7262   0.16278   0.15538  -0.0364   0.2579   1.0000
  14.000   0.7472   0.16857   0.16127  -0.0360   0.2472   1.0000
  13.750   0.7262   0.16278   0.15538  -0.0364   0.2579   1.0000
  13.850   0.7257   0.16404   0.15667  -0.0369   0.2541   1.0000
  13.950   0.7531   0.16850   0.16123  -0.0354   0.2476   1.0000
  14.250   0.7327   0.17023   0.16286  -0.0385   0.2415   1.0000
  14.500   0.7491   0.17546   0.16814  -0.0386   0.2350   1.0000
  14.750   0.7462   0.17880   0.17143  -0.0405   0.2314   1.0000
  15.000   0.7492   0.18196   0.17459  -0.0418   0.2237   1.0000
  15.250   0.7625   0.18745   0.18010  -0.0424   0.2188   1.0000
  15.500   0.7587   0.18924   0.18186  -0.0444   0.2106   1.0000
  15.750   0.7703   0.19414   0.18677  -0.0450   0.2043   1.0000
  16.000   0.7739   0.19681   0.18944  -0.0464   0.1949   1.0000
  16.250   0.7836   0.20175   0.19438  -0.0474   0.1908   1.0000
  16.500   0.7821   0.20357   0.19616  -0.0497   0.1837   1.0000
  16.750   0.8098   0.21252   0.20520  -0.0486   0.1782   1.0000
  17.000   0.7959   0.21113   0.20372  -0.0526   0.1751   1.0000
  17.250   0.8040   0.21458   0.20718  -0.0538   0.1676   1.0000
  17.500   0.8149   0.21974   0.21237  -0.0546   0.1634   1.0000
  17.750   0.8141   0.22095   0.21355  -0.0574   0.1569   1.0000
  18.000   0.8376   0.22950   0.22217  -0.0563   0.1507   1.0000
  18.250   0.8287   0.22820   0.22078  -0.0604   0.1475   1.0000
  18.500   0.8357   0.23125   0.22384  -0.0621   0.1417   1.0000
  18.750   0.8615   0.24168   0.23435  -0.0607   0.1374   1.0000
  19.000   0.8522   0.23924   0.23183  -0.0651   0.1356   1.0000
  19.250   0.8554   0.24115   0.23372  -0.0676   0.1307   1.0000
  19.500   0.8668   0.24544   0.23804  -0.0685   0.1262   1.0000
  19.750   0.8813   0.25268   0.24530  -0.0688   0.1236   1.0000
  20.000   0.8776   0.25141   0.24396  -0.0729   0.1203   1.0000
   0.000  -0.0336   0.02613   0.01578  -0.0181   0.9732   1.0000
  -0.250  -0.0665   0.02539   0.01527  -0.0156   0.9820   1.0000
  -0.500  -0.1040   0.02452   0.01465  -0.0123   0.9907   1.0000
  -0.750  -0.1419   0.02371   0.01413  -0.0088   0.9994   1.0000
  -1.000  -0.1556   0.02335   0.01404  -0.0099   1.0000   1.0000
  -1.250  -0.1661   0.02306   0.01399  -0.0116   1.0000   1.0000
  -1.500  -0.1753   0.02281   0.01401  -0.0135   1.0000   1.0000
  -1.750  -0.1828   0.02262   0.01409  -0.0156   1.0000   1.0000
  -2.000  -0.1882   0.02248   0.01424  -0.0180   1.0000   1.0000
  -2.250  -0.1905   0.02241   0.01444  -0.0208   1.0000   1.0000
  -2.500  -0.1888   0.02240   0.01469  -0.0241   1.0000   1.0000
  -2.750  -0.1819   0.02247   0.01500  -0.0280   1.0000   1.0000
  -3.000  -0.1681   0.02263   0.01534  -0.0324   1.0000   1.0000
  -3.250  -0.3973   0.02802   0.01751  -0.0085   1.0000   0.1645
  -3.500  -0.4181   0.02935   0.01903  -0.0098   1.0000   0.1432
  -3.750  -0.4394   0.03109   0.02098  -0.0111   1.0000   0.1318
  -4.000  -0.4584   0.03290   0.02282  -0.0123   1.0000   0.1216
  -4.250  -0.4768   0.03475   0.02532  -0.0141   1.0000   0.1158
  -4.500  -0.4936   0.03717   0.02822  -0.0158   1.0000   0.1146
  -4.750  -0.5075   0.03970   0.03120  -0.0178   1.0000   0.1141
  -5.000  -0.5182   0.04224   0.03415  -0.0198   1.0000   0.1129
  -5.250  -0.5257   0.04505   0.03739  -0.0221   1.0000   0.1134
  -5.500  -0.5298   0.04831   0.04106  -0.0245   1.0000   0.1166
  -5.750  -0.5345   0.05154   0.04445  -0.0268   1.0000   0.1205
  -6.000  -0.5298   0.05562   0.04906  -0.0293   1.0000   0.1331
  -6.750  -0.3958   0.07746   0.07148  -0.0085   1.0000   0.4115
  -7.000  -0.3979   0.08043   0.07436  -0.0103   1.0000   0.3963
  -6.850  -0.3913   0.07835   0.07231  -0.0096   1.0000   0.4036
  -6.950  -0.3932   0.07957   0.07350  -0.0102   1.0000   0.3978
  -7.250  -0.4073   0.08415   0.07802  -0.0120   1.0000   0.3788
  -7.500  -0.3925   0.08575   0.07946  -0.0138   1.0000   0.3590
  -7.750  -0.4189   0.09038   0.08411  -0.0160   1.0000   0.3359
  -7.500  -0.3925   0.08575   0.07946  -0.0138   1.0000   0.3590
  -7.600  -0.4138   0.08838   0.08214  -0.0147   1.0000   0.3501
  -7.700  -0.3946   0.08809   0.08174  -0.0149   1.0000   0.3444
  -8.000  -0.4120   0.09266   0.08627  -0.0169   1.0000   0.3206
  -8.250  -0.4101   0.09534   0.08887  -0.0177   1.0000   0.3055
  -8.500  -0.4109   0.09835   0.09180  -0.0183   1.0000   0.2908
  -8.750  -0.4233   0.10244   0.09586  -0.0192   1.0000   0.2780
  -9.000  -0.4283   0.10567   0.09904  -0.0197   1.0000   0.2650
  -9.500  -0.4157   0.11077   0.10394  -0.0184   1.0000   0.2457
  -9.750  -0.4369   0.11600   0.10922  -0.0196   1.0000   0.2352
 -10.000  -0.4214   0.11713   0.11020  -0.0178   1.0000   0.2263
 -10.250  -0.4292   0.12110   0.11415  -0.0177   1.0000   0.2189
 -10.500  -0.4498   0.12648   0.11955  -0.0190   1.0000   0.2067
 -10.750  -0.4311   0.12711   0.12006  -0.0163   1.0000   0.2020
 -10.500  -0.4498   0.12648   0.11955  -0.0190   1.0000   0.2067
 -10.600  -0.4402   0.12652   0.11953  -0.0177   1.0000   0.2058
 -10.700  -0.4328   0.12676   0.11972  -0.0166   1.0000   0.2037
 -11.000  -0.4499   0.13238   0.12533  -0.0172   1.0000   0.1920
 -11.250  -0.4383   0.13355   0.12640  -0.0150   1.0000   0.1854
 -11.500  -0.4576   0.13920   0.13206  -0.0158   1.0000   0.1777
 -11.750  -0.4463   0.14021   0.13298  -0.0134   1.0000   0.1717
 -12.000  -0.4775   0.14799   0.14081  -0.0153   1.0000   0.1642
 -12.250  -0.4601   0.14778   0.14049  -0.0121   1.0000   0.1619
 -12.500  -0.4608   0.15024   0.14291  -0.0107   1.0000   0.1554
 -12.750  -0.4881   0.15803   0.15074  -0.0120   1.0000   0.1499
 -13.000  -0.4737   0.15772   0.15034  -0.0089   1.0000   0.1476
 -13.250  -0.4752   0.16007   0.15265  -0.0073   1.0000   0.1421
 -13.500  -0.5084   0.16974   0.16241  -0.0092   1.0000   0.1360
 -13.750  -0.4957   0.16905   0.16163  -0.0061   1.0000   0.1349
 -14.000  -0.4921   0.17005   0.16257  -0.0037   1.0000   0.1312
 -14.250  -0.4991   0.17323   0.16574  -0.0026   1.0000   0.1264
 -14.500  -0.5280   0.18317   0.17572  -0.0039   1.0000   0.1219
 -14.750  -0.5189   0.18222   0.17469  -0.0009   1.0000   0.1209
 -15.000  -0.5171   0.18299   0.17541   0.0016   1.0000   0.1175
 -15.250  -0.5239   0.18597   0.17838   0.0029   1.0000   0.1132
 -15.500  -0.5552   0.19772   0.19018   0.0012   1.0000   0.1080
 -15.750  -0.5490   0.19661   0.18901   0.0041   1.0000   0.1075
 -16.000  -0.5457   0.19611   0.18845   0.0071   1.0000   0.1052
 -16.250  -0.5512   0.19846   0.19078   0.0089   1.0000   0.1017
 -16.500  -0.5605   0.20198   0.19430   0.0100   1.0000   0.0977
 -16.750  -0.5870   0.21382   0.20618   0.0088   1.0000   0.0942
 -17.000  -0.5825   0.21205   0.20434   0.0119   1.0000   0.0936
 -17.250  -0.5834   0.21209   0.20434   0.0147   1.0000   0.0922
 -17.500  -0.5887   0.21408   0.20630   0.0169   1.0000   0.0893
 -17.750  -0.5965   0.21699   0.20925   0.0186   1.0000   0.0865
 -18.000  -0.6057   0.22042   0.21268   0.0199   1.0000   0.0840
 -18.250  -0.6209   0.22737   0.21966   0.0200   1.0000   0.0814
 -18.500  -0.6341   0.23469   0.22696   0.0209   1.0000   0.0805
 -18.750  -0.6346   0.23352   0.22575   0.0238   1.0000   0.0800
 -19.000  -0.6378   0.23355   0.22575   0.0267   1.0000   0.0788
 -19.250  -0.6439   0.23536   0.22753   0.0290   1.0000   0.0766
 -19.500  -0.6517   0.23801   0.23018   0.0309   1.0000   0.0745
 -19.750  -0.6601   0.24105   0.23321   0.0326   1.0000   0.0722
 -20.000  -0.6693   0.24445   0.23661   0.0341   1.0000   0.0703
