  
       XFOIL         Version 6.99
  
 Calculated polar for: MH 22  7.2%                                     
  
 1 1 Reynolds number fixed          Mach number fixed         
  
 xtrf =   1.000 (top)        1.000 (bottom)  
 Mach =   0.000     Re =     0.050 e 6     Ncrit =   9.000
  
   alpha    CL        CD       CDp       CM     Top_Xtr  Bot_Xtr
  ------ -------- --------- --------- -------- -------- --------
   0.000   0.0298   0.01681   0.00653  -0.0130   1.0000   1.0000
  -0.250   0.0145   0.01642   0.00630  -0.0140   1.0000   1.0000
  -0.150   0.0205   0.01657   0.00638  -0.0135   1.0000   1.0000
  -0.050   0.0267   0.01673   0.00647  -0.0132   1.0000   1.0000
   0.250   0.0455   0.01723   0.00675  -0.0121   1.0000   1.0000
   0.000   0.0298   0.01681   0.00653  -0.0130   1.0000   1.0000
   0.100   0.0360   0.01697   0.00663  -0.0126   1.0000   1.0000
   0.200   0.0423   0.01714   0.00669  -0.0123   1.0000   1.0000
   0.500   0.0616   0.01768   0.00708  -0.0114   1.0000   1.0000
   0.250   0.0455   0.01723   0.00675  -0.0121   1.0000   1.0000
   0.350   0.0519   0.01740   0.00687  -0.0118   1.0000   1.0000
   0.450   0.0583   0.01759   0.00701  -0.0116   1.0000   1.0000
   0.750   0.0777   0.01818   0.00748  -0.0109   1.0000   1.0000
   0.500   0.0616   0.01768   0.00708  -0.0114   1.0000   1.0000
   0.600   0.0680   0.01788   0.00724  -0.0112   1.0000   1.0000
   0.700   0.0745   0.01808   0.00740  -0.0110   1.0000   1.0000
   1.000   0.0999   0.01878   0.00800  -0.0116   0.9973   1.0000
   0.750   0.0778   0.01818   0.00748  -0.0109   1.0000   1.0000
   0.850   0.0842   0.01840   0.00766  -0.0107   1.0000   1.0000
   0.950   0.0907   0.01862   0.00785  -0.0105   1.0000   1.0000
   1.250   0.1579   0.01976   0.00894  -0.0190   0.9790   1.0000
   1.000   0.0999   0.01878   0.00800  -0.0116   0.9973   1.0000
   1.100   0.1226   0.01917   0.00837  -0.0145   0.9901   1.0000
   1.200   0.1473   0.01959   0.00878  -0.0177   0.9827   1.0000
   1.500   0.2135   0.02061   0.00980  -0.0257   0.9596   1.0000
   1.250   0.1579   0.01976   0.00894  -0.0190   0.9790   1.0000
   1.350   0.1806   0.02012   0.00931  -0.0218   0.9713   1.0000
   1.450   0.2024   0.02045   0.00964  -0.0244   0.9636   1.0000
   1.750   0.2721   0.02138   0.01064  -0.0325   0.9402   1.0000
   1.500   0.2135   0.02061   0.00980  -0.0257   0.9596   1.0000
   1.600   0.2368   0.02094   0.01015  -0.0284   0.9521   1.0000
   1.700   0.2593   0.02123   0.01047  -0.0310   0.9439   1.0000
   2.000   0.3239   0.02201   0.01137  -0.0378   0.9191   1.0000
   1.750   0.2721   0.02138   0.01064  -0.0325   0.9402   1.0000
   1.850   0.2915   0.02164   0.01093  -0.0345   0.9315   1.0000
   1.950   0.3129   0.02190   0.01123  -0.0367   0.9233   1.0000
   2.250   0.3834   0.02253   0.01210  -0.0441   0.8980   1.0000
   2.000   0.3239   0.02201   0.01137  -0.0378   0.9191   1.0000
   2.100   0.3474   0.02224   0.01165  -0.0404   0.9108   1.0000
   0.000   0.0298   0.01681   0.00653  -0.0130   1.0000   1.0000
  -0.250   0.0145   0.01642   0.00630  -0.0140   1.0000   1.0000
  -0.150   0.0205   0.01657   0.00638  -0.0135   1.0000   1.0000
  -0.050   0.0267   0.01673   0.00647  -0.0132   1.0000   1.0000
   0.250   0.0455   0.01723   0.00675  -0.0121   1.0000   1.0000
   0.000   0.0298   0.01681   0.00653  -0.0130   1.0000   1.0000
   0.100   0.0360   0.01697   0.00663  -0.0126   1.0000   1.0000
   0.200   0.0423   0.01714   0.00669  -0.0123   1.0000   1.0000
   0.500   0.0616   0.01768   0.00708  -0.0114   1.0000   1.0000
   0.250   0.0455   0.01723   0.00675  -0.0121   1.0000   1.0000
   0.350   0.0519   0.01740   0.00687  -0.0118   1.0000   1.0000
   0.450   0.0583   0.01759   0.00701  -0.0116   1.0000   1.0000
   0.750   0.0777   0.01818   0.00748  -0.0109   1.0000   1.0000
   0.500   0.0616   0.01768   0.00708  -0.0114   1.0000   1.0000
   0.600   0.0680   0.01788   0.00724  -0.0112   1.0000   1.0000
   0.700   0.0745   0.01808   0.00740  -0.0110   1.0000   1.0000
   1.000   0.0999   0.01878   0.00800  -0.0116   0.9973   1.0000
   0.750   0.0778   0.01818   0.00748  -0.0109   1.0000   1.0000
   0.850   0.0842   0.01840   0.00766  -0.0107   1.0000   1.0000
   0.950   0.0907   0.01862   0.00785  -0.0105   1.0000   1.0000
   1.250   0.1579   0.01976   0.00894  -0.0190   0.9790   1.0000
   1.000   0.0999   0.01878   0.00800  -0.0116   0.9973   1.0000
   1.100   0.1226   0.01917   0.00837  -0.0145   0.9901   1.0000
   1.200   0.1473   0.01959   0.00878  -0.0177   0.9827   1.0000
   1.500   0.2135   0.02061   0.00980  -0.0257   0.9596   1.0000
   1.250   0.1579   0.01976   0.00894  -0.0190   0.9790   1.0000
   1.350   0.1806   0.02012   0.00931  -0.0218   0.9713   1.0000
   1.450   0.2024   0.02045   0.00964  -0.0244   0.9636   1.0000
   1.750   0.2721   0.02138   0.01064  -0.0325   0.9402   1.0000
   1.500   0.2135   0.02061   0.00980  -0.0257   0.9596   1.0000
   1.600   0.2368   0.02094   0.01015  -0.0284   0.9521   1.0000
   1.700   0.2593   0.02123   0.01047  -0.0310   0.9439   1.0000
   2.000   0.3239   0.02201   0.01137  -0.0378   0.9191   1.0000
   1.750   0.2721   0.02138   0.01064  -0.0325   0.9402   1.0000
   1.850   0.2915   0.02164   0.01093  -0.0345   0.9315   1.0000
   1.950   0.3129   0.02190   0.01123  -0.0367   0.9233   1.0000
   2.250   0.3834   0.02253   0.01210  -0.0441   0.8980   1.0000
   2.000   0.3239   0.02201   0.01137  -0.0378   0.9191   1.0000
   2.100   0.3474   0.02224   0.01165  -0.0404   0.9108   1.0000
   2.200   0.3744   0.02242   0.01196  -0.0434   0.9026   1.0000
   2.500   0.4360   0.02293   0.01268  -0.0485   0.8761   1.0000
   2.250   0.3834   0.02253   0.01210  -0.0441   0.8980   1.0000
   2.350   0.4065   0.02268   0.01233  -0.0463   0.8894   1.0000
   2.450   0.4223   0.02289   0.01260  -0.0472   0.8802   1.0000
   2.750   0.4766   0.02337   0.01330  -0.0505   0.8529   1.0000
   2.500   0.4360   0.02293   0.01268  -0.0485   0.8761   1.0000
   2.600   0.4506   0.02314   0.01295  -0.0492   0.8666   1.0000
   2.700   0.4705   0.02326   0.01316  -0.0505   0.8580   1.0000
   3.000   0.5150   0.02376   0.01387  -0.0517   0.8297   1.0000
   2.750   0.4766   0.02337   0.01330  -0.0505   0.8529   1.0000
   2.850   0.4939   0.02351   0.01351  -0.0513   0.8439   1.0000
   2.950   0.5116   0.02360   0.01369  -0.0520   0.8351   1.0000
   3.250   0.5515   0.02404   0.01445  -0.0518   0.8070   1.0000
   3.000   0.5150   0.02376   0.01387  -0.0517   0.8297   1.0000
   3.100   0.5326   0.02382   0.01401  -0.0521   0.8211   1.0000
   3.200   0.5415   0.02407   0.01443  -0.0516   0.8106   1.0000
   3.500   0.5768   0.02452   0.01510  -0.0503   0.7821   1.0000
   3.250   0.5515   0.02404   0.01445  -0.0518   0.8070   1.0000
   3.350   0.5598   0.02430   0.01477  -0.0511   0.7964   1.0000
   3.450   0.5693   0.02452   0.01506  -0.0505   0.7862   1.0000
   3.750   0.6008   0.02499   0.01574  -0.0484   0.7569   1.0000
   3.500   0.5768   0.02452   0.01510  -0.0503   0.7821   1.0000
   3.600   0.5854   0.02476   0.01541  -0.0496   0.7716   1.0000
   3.700   0.5953   0.02494   0.01565  -0.0488   0.7617   1.0000
   4.000   0.6238   0.02541   0.01634  -0.0462   0.7314   1.0000
   3.750   0.6008   0.02499   0.01574  -0.0484   0.7569   1.0000
   3.850   0.6096   0.02519   0.01601  -0.0476   0.7466   1.0000
   3.950   0.6198   0.02529   0.01618  -0.0466   0.7370   1.0000
   4.250   0.6461   0.02578   0.01689  -0.0436   0.7054   1.0000
   4.000   0.6238   0.02541   0.01634  -0.0462   0.7314   1.0000
   4.100   0.6328   0.02557   0.01657  -0.0452   0.7211   1.0000
   4.200   0.6432   0.02558   0.01665  -0.0440   0.7119   1.0000
   4.500   0.6680   0.02607   0.01737  -0.0408   0.6785   1.0000
   4.250   0.6461   0.02578   0.01689  -0.0436   0.7054   1.0000
   4.350   0.6550   0.02589   0.01708  -0.0425   0.6949   1.0000
   4.450   0.6650   0.02586   0.01711  -0.0411   0.6854   1.0000
   4.750   0.6896   0.02625   0.01784  -0.0377   0.6504   1.0000
   4.500   0.6679   0.02607   0.01737  -0.0408   0.6785   1.0000
   4.600   0.6766   0.02616   0.01764  -0.0396   0.6675   1.0000
   4.700   0.6858   0.02617   0.01772  -0.0382   0.6568   1.0000
   5.000   0.7116   0.02623   0.01801  -0.0343   0.6210   1.0000
   4.750   0.6896   0.02625   0.01784  -0.0377   0.6504   1.0000
   4.850   0.6980   0.02632   0.01799  -0.0364   0.6385   1.0000
   4.950   0.7066   0.02635   0.01810  -0.0352   0.6265   1.0000
   5.250   0.7326   0.02621   0.01819  -0.0310   0.5878   1.0000
   5.000   0.7116   0.02623   0.01801  -0.0343   0.6210   1.0000
   5.100   0.7200   0.02624   0.01810  -0.0330   0.6082   1.0000
   5.200   0.7285   0.02620   0.01813  -0.0316   0.5949   1.0000
   5.500   0.7549   0.02563   0.01775  -0.0269   0.5518   1.0000
   5.250   0.7326   0.02621   0.01819  -0.0310   0.5878   1.0000
   5.350   0.7411   0.02610   0.01816  -0.0295   0.5734   1.0000
   5.450   0.7497   0.02594   0.01807  -0.0280   0.5582   1.0000
   5.750   0.7748   0.02488   0.01713  -0.0227   0.5033   1.0000
   5.500   0.7549   0.02563   0.01775  -0.0269   0.5518   1.0000
   5.600   0.7625   0.02552   0.01774  -0.0255   0.5333   1.0000
   5.700   0.7710   0.02506   0.01729  -0.0236   0.5144   1.0000
   6.000   0.7913   0.02357   0.01562  -0.0173   0.4326   1.0000
   5.750   0.7748   0.02488   0.01713  -0.0227   0.5033   1.0000
   5.850   0.7822   0.02436   0.01659  -0.0206   0.4789   1.0000
   5.950   0.7885   0.02382   0.01597  -0.0184   0.4494   1.0000
   6.250   0.7969   0.02392   0.01526  -0.0122   0.2990   1.0000
   6.000   0.7913   0.02357   0.01562  -0.0173   0.4326   1.0000
   6.100   0.7953   0.02337   0.01524  -0.0152   0.3912   1.0000
   6.200   0.7970   0.02359   0.01520  -0.0132   0.3336   1.0000
   6.500   0.8003   0.02755   0.01752  -0.0086   0.1600   1.0000
   6.250   0.7969   0.02392   0.01526  -0.0122   0.2990   1.0000
   6.350   0.7960   0.02537   0.01603  -0.0103   0.2229   1.0000
   6.450   0.7981   0.02691   0.01698  -0.0090   0.1774   1.0000
   6.750   0.8186   0.03062   0.02022  -0.0064   0.1167   1.0000
   6.500   0.8003   0.02755   0.01752  -0.0086   0.1600   1.0000
   6.600   0.8053   0.02877   0.01847  -0.0077   0.1357   1.0000
   6.700   0.8138   0.03002   0.01963  -0.0069   0.1222   1.0000
   7.000   0.8431   0.03385   0.02349  -0.0048   0.0973   1.0000
   6.750   0.8186   0.03062   0.02022  -0.0064   0.1167   1.0000
   6.850   0.8290   0.03200   0.02154  -0.0057   0.1084   1.0000
   6.950   0.8386   0.03322   0.02280  -0.0051   0.1008   1.0000
   7.250   0.8649   0.03685   0.02670  -0.0036   0.0835   1.0000
   7.000   0.8431   0.03385   0.02349  -0.0048   0.0973   1.0000
   7.100   0.8510   0.03482   0.02449  -0.0043   0.0893   1.0000
   7.200   0.8600   0.03619   0.02591  -0.0039   0.0847   1.0000
   7.500   0.8879   0.04049   0.03081  -0.0022   0.0792   1.0000
   7.250   0.8649   0.03685   0.02670  -0.0036   0.0835   1.0000
   7.350   0.8745   0.03827   0.02833  -0.0030   0.0814   1.0000
   7.450   0.8835   0.03974   0.02996  -0.0024   0.0798   1.0000
   7.750   0.9073   0.04450   0.03525  -0.0009   0.0774   1.0000
   7.500   0.8879   0.04049   0.03081  -0.0022   0.0792   1.0000
   7.600   0.8961   0.04206   0.03255  -0.0016   0.0782   1.0000
   7.700   0.9037   0.04369   0.03436  -0.0011   0.0777   1.0000
   8.000   0.9243   0.04893   0.03988   0.0000   0.0749   1.0000
   7.750   0.9073   0.04450   0.03525  -0.0009   0.0774   1.0000
   7.850   0.9141   0.04613   0.03704  -0.0004   0.0767   1.0000
   7.950   0.9212   0.04784   0.03880  -0.0001   0.0756   1.0000
   8.250   0.9332   0.05343   0.04490   0.0011   0.0735   1.0000
   8.000   0.9243   0.04893   0.03988   0.0000   0.0749   1.0000
   8.100   0.9289   0.05102   0.04207   0.0003   0.0741   1.0000
   8.200   0.9319   0.05260   0.04394   0.0009   0.0737   1.0000
   8.500   0.9371   0.05774   0.04979   0.0022   0.0728   1.0000
   8.250   0.9332   0.05343   0.04490   0.0011   0.0735   1.0000
   8.350   0.9357   0.05512   0.04682   0.0016   0.0733   1.0000
   8.450   0.9372   0.05686   0.04879   0.0020   0.0730   1.0000
   8.750   0.9387   0.06239   0.05485   0.0029   0.0729   1.0000
   8.500   0.9371   0.05774   0.04979   0.0022   0.0728   1.0000
   8.600   0.9383   0.05958   0.05180   0.0025   0.0728   1.0000
   8.700   0.9394   0.06145   0.05382   0.0028   0.0730   1.0000
   9.000   0.9380   0.06724   0.06000   0.0033   0.0734   1.0000
   8.750   0.9387   0.06239   0.05485   0.0029   0.0729   1.0000
   8.850   0.9378   0.06433   0.05693   0.0031   0.0730   1.0000
   8.950   0.9384   0.06630   0.05900   0.0033   0.0733   1.0000
   9.250   0.9404   0.07258   0.06553   0.0036   0.0744   1.0000
   9.000   0.9380   0.06724   0.06000   0.0033   0.0734   1.0000
   9.100   0.9391   0.06935   0.06217   0.0034   0.0737   1.0000
   9.200   0.9397   0.07160   0.06447   0.0035   0.0740   1.0000
   9.500   0.8861   0.07815   0.07171   0.0012   0.0826   1.0000
   9.250   0.9066   0.07283   0.06625   0.0024   0.0793   1.0000
   9.350   0.8977   0.07518   0.06869   0.0017   0.0815   1.0000
   9.450   0.8894   0.07713   0.07068   0.0014   0.0820   1.0000
   9.750   0.8715   0.08337   0.07697  -0.0006   0.0845   1.0000
   9.500   0.8861   0.07815   0.07171   0.0012   0.0826   1.0000
   9.600   0.8791   0.08018   0.07377   0.0006   0.0833   1.0000
   9.700   0.8772   0.08219   0.07578   0.0001   0.0846   1.0000
  10.000   0.8694   0.08863   0.08223  -0.0018   0.0862   1.0000
   9.750   0.8715   0.08337   0.07697  -0.0006   0.0845   1.0000
   9.850   0.8688   0.08550   0.07910  -0.0013   0.0852   1.0000
   9.950   0.8697   0.08757   0.08117  -0.0015   0.0859   1.0000
  10.500   0.7024   0.10378   0.09757  -0.0149   0.1034   1.0000
  10.250   0.7258   0.09437   0.08835  -0.0089   0.0972   1.0000
  10.350   0.7252   0.09670   0.09067  -0.0093   0.0982   1.0000
  10.450   0.7291   0.09854   0.09251  -0.0088   0.0992   1.0000
  10.750   0.6900   0.11119   0.10492  -0.0183   0.1096   1.0000
  10.500   0.7024   0.10378   0.09757  -0.0149   0.1034   1.0000
  10.600   0.6930   0.10741   0.10116  -0.0171   0.1065   1.0000
  10.700   0.6902   0.11003   0.10377  -0.0181   0.1086   1.0000
  11.000   0.6735   0.11899   0.11267  -0.0228   0.1204   1.0000
  10.750   0.6900   0.11119   0.10492  -0.0183   0.1096   1.0000
  10.850   0.6949   0.11316   0.10690  -0.0179   0.1115   1.0000
  10.950   0.6754   0.11760   0.11128  -0.0222   0.1183   1.0000
  11.250   0.7693   0.14113   0.13432  -0.0447   0.2320   1.0000
  11.000   0.7658   0.13612   0.12933  -0.0433   0.2325   1.0000
  11.100   0.7652   0.13795   0.13114  -0.0441   0.2326   1.0000
  11.200   0.7676   0.14008   0.13327  -0.0445   0.2323   1.0000
  11.500   0.7690   0.14584   0.13898  -0.0464   0.2302   1.0000
  11.250   0.7693   0.14113   0.13432  -0.0447   0.2320   1.0000
  11.350   0.7742   0.14364   0.13683  -0.0449   0.2315   1.0000
  11.450   0.7763   0.14585   0.13903  -0.0454   0.2309   1.0000
  11.750   0.7597   0.14867   0.14175  -0.0487   0.2234   1.0000
  11.500   0.7690   0.14584   0.13899  -0.0464   0.2302   1.0000
  11.600   0.7587   0.14630   0.13939  -0.0479   0.2267   1.0000
  11.700   0.7587   0.14787   0.14095  -0.0485   0.2243   1.0000
  12.000   0.7749   0.15430   0.14741  -0.0486   0.2189   1.0000
  11.750   0.7597   0.14867   0.14175  -0.0487   0.2234   1.0000
  11.850   0.7630   0.15048   0.14356  -0.0489   0.2216   1.0000
  11.950   0.7702   0.15291   0.14601  -0.0488   0.2196   1.0000
  12.250   0.7680   0.15755   0.15058  -0.0509   0.2148   1.0000
  12.000   0.7749   0.15431   0.14742  -0.0486   0.2189   1.0000
  12.100   0.7852   0.15755   0.15067  -0.0482   0.2177   1.0000
  12.200   0.7721   0.15741   0.15046  -0.0502   0.2162   1.0000
  12.500   0.7727   0.16150   0.15453  -0.0519   0.2076   1.0000
  12.250   0.7680   0.15754   0.15057  -0.0509   0.2148   1.0000
  12.350   0.7665   0.15869   0.15171  -0.0517   0.2117   1.0000
  12.450   0.7696   0.16044   0.15346  -0.0519   0.2089   1.0000
  12.750   0.7849   0.16726   0.16040  -0.0523   0.2037   1.0000
  12.500   0.7727   0.16151   0.15453  -0.0519   0.2076   1.0000
  12.600   0.7839   0.16456   0.15762  -0.0513   0.2055   1.0000
  12.700   0.7897   0.16729   0.16046  -0.0515   0.2042   1.0000
  13.000   0.7773   0.16912   0.16221  -0.0548   0.1969   1.0000
  12.750   0.7849   0.16726   0.16040  -0.0523   0.2037   1.0000
  12.850   0.7763   0.16727   0.16025  -0.0539   0.2012   1.0000
  12.950   0.7760   0.16838   0.16146  -0.0546   0.1983   1.0000
  13.250   0.7953   0.17558   0.16868  -0.0545   0.1907   1.0000
  13.000   0.7773   0.16912   0.16221  -0.0548   0.1969   1.0000
  13.100   0.7864   0.17171   0.16482  -0.0543   0.1932   1.0000
  13.200   0.7988   0.17551   0.16863  -0.0537   0.1910   1.0000
  13.500   0.7874   0.17703   0.17007  -0.0571   0.1830   1.0000
  13.250   0.7953   0.17558   0.16869  -0.0545   0.1906   1.0000
  13.350   0.7872   0.17545   0.16850  -0.0561   0.1889   1.0000
  13.450   0.7855   0.17623   0.16927  -0.0570   0.1854   1.0000
  13.750   0.8015   0.18270   0.17574  -0.0572   0.1770   1.0000
  13.600   0.8103   0.18251   0.17562  -0.0550   0.1779   1.0000
  13.700   0.8028   0.18236   0.17541  -0.0566   0.1773   1.0000
  14.000   0.7990   0.18464   0.17765  -0.0595   0.1691   1.0000
  13.750   0.8015   0.18270   0.17574  -0.0572   0.1770   1.0000
  13.850   0.7956   0.18266   0.17567  -0.0588   0.1745   1.0000
  13.950   0.7965   0.18379   0.17679  -0.0595   0.1707   1.0000
  14.250   0.8077   0.18933   0.18232  -0.0604   0.1629   1.0000
  14.000   0.7990   0.18464   0.17765  -0.0595   0.1691   1.0000
  14.100   0.8166   0.18961   0.18266  -0.0578   0.1646   1.0000
  14.200   0.8116   0.18963   0.18264  -0.0594   0.1639   1.0000
  14.500   0.8100   0.19205   0.18502  -0.0623   0.1562   1.0000
  14.250   0.8077   0.18933   0.18231  -0.0604   0.1629   1.0000
  14.350   0.8069   0.19011   0.18309  -0.0615   0.1614   1.0000
  14.450   0.8078   0.19122   0.18418  -0.0622   0.1580   1.0000
  14.750   0.8290   0.19930   0.19229  -0.0618   0.1513   1.0000
  14.500   0.8100   0.19205   0.18502  -0.0623   0.1562   1.0000
  14.600   0.8199   0.19499   0.18799  -0.0616   0.1531   1.0000
  14.700   0.8329   0.19975   0.19276  -0.0608   0.1516   1.0000
  15.000   0.8216   0.19964   0.19256  -0.0655   0.1474   1.0000
  14.750   0.8290   0.19930   0.19229  -0.0618   0.1513   1.0000
  14.850   0.8247   0.19909   0.19205  -0.0634   0.1505   1.0000
  14.950   0.8215   0.19921   0.19214  -0.0650   0.1486   1.0000
  15.250   0.8309   0.20368   0.19661  -0.0664   0.1414   1.0000
  15.000   0.8216   0.19964   0.19256  -0.0655   0.1474   1.0000
  15.100   0.8237   0.20093   0.19384  -0.0662   0.1448   1.0000
  15.200   0.8278   0.20257   0.19549  -0.0665   0.1426   1.0000
  15.500   0.8455   0.21029   0.20322  -0.0667   0.1381   1.0000
  15.250   0.8309   0.20369   0.19662  -0.0664   0.1414   1.0000
  15.350   0.8449   0.20847   0.20145  -0.0651   0.1391   1.0000
  15.450   0.8482   0.21069   0.20364  -0.0658   0.1384   1.0000
  15.750   0.8413   0.21070   0.20358  -0.0704   0.1346   1.0000
  15.500   0.8455   0.21029   0.20322  -0.0667   0.1381   1.0000
  15.600   0.8420   0.20996   0.20286  -0.0684   0.1372   1.0000
  15.700   0.8406   0.21024   0.20312  -0.0699   0.1353   1.0000
  16.000   0.8495   0.21435   0.20722  -0.0717   0.1291   1.0000
  15.750   0.8413   0.21070   0.20358  -0.0704   0.1346   1.0000
  15.850   0.8435   0.21195   0.20481  -0.0711   0.1320   1.0000
  15.950   0.8472   0.21352   0.20639  -0.0716   0.1298   1.0000
  16.250   0.8673   0.22229   0.21518  -0.0713   0.1252   1.0000
  16.000   0.8495   0.21435   0.20723  -0.0717   0.1291   1.0000
  16.100   0.8580   0.21749   0.21039  -0.0712   0.1268   1.0000
  16.200   0.8704   0.22304   0.21595  -0.0702   0.1255   1.0000
  16.500   0.8632   0.22199   0.21482  -0.0752   0.1229   1.0000
  16.250   0.8673   0.22229   0.21518  -0.0713   0.1252   1.0000
  16.350   0.8649   0.22191   0.21477  -0.0730   0.1247   1.0000
  16.450   0.8631   0.22175   0.21458  -0.0746   0.1236   1.0000
  16.750   0.8688   0.22478   0.21760  -0.0774   0.1183   1.0000
  16.500   0.8632   0.22198   0.21481  -0.0752   0.1229   1.0000
  16.600   0.8644   0.22286   0.21568  -0.0763   0.1209   1.0000
  16.700   0.8672   0.22410   0.21692  -0.0771   0.1191   1.0000
  17.000   0.8840   0.23091   0.22377  -0.0772   0.1136   1.0000
  16.750   0.8688   0.22477   0.21759  -0.0774   0.1183   1.0000
  16.850   0.8728   0.22641   0.21924  -0.0778   0.1164   1.0000
  16.950   0.8787   0.22868   0.22152  -0.0778   0.1146   1.0000
  17.250   0.8918   0.23555   0.22838  -0.0790   0.1120   1.0000
  17.000   0.8840   0.23091   0.22377  -0.0772   0.1136   1.0000
  17.100   0.8948   0.23650   0.22937  -0.0765   0.1125   1.0000
  17.200   0.8927   0.23583   0.22867  -0.0781   0.1122   1.0000
  17.500   0.8912   0.23570   0.22848  -0.0827   0.1091   1.0000
  17.250   0.8918   0.23555   0.22838  -0.0790   0.1120   1.0000
  17.350   0.8903   0.23511   0.22791  -0.0807   0.1112   1.0000
  17.450   0.8906   0.23535   0.22813  -0.0821   0.1099   1.0000
  17.750   0.8983   0.23876   0.23153  -0.0847   0.1049   1.0000
  17.500   0.8912   0.23570   0.22848  -0.0827   0.1091   1.0000
  17.600   0.8936   0.23676   0.22954  -0.0836   0.1075   1.0000
  17.700   0.8966   0.23804   0.23082  -0.0844   0.1058   1.0000
  18.000   0.9122   0.24468   0.23749  -0.0848   0.1008   1.0000
  17.750   0.8983   0.23875   0.23152  -0.0847   0.1049   1.0000
  17.850   0.9025   0.24043   0.23321  -0.0851   0.1032   1.0000
  17.950   0.9077   0.24257   0.23536  -0.0852   0.1017   1.0000
  18.250   0.9230   0.25077   0.24356  -0.0860   0.0993   1.0000
  18.000   0.9122   0.24468   0.23749  -0.0848   0.1008   1.0000
  18.100   0.9250   0.25200   0.24483  -0.0835   0.0996   1.0000
  18.200   0.9236   0.25117   0.24398  -0.0851   0.0994   1.0000
  18.500   0.9228   0.25014   0.24288  -0.0899   0.0976   1.0000
  18.250   0.9230   0.25077   0.24356  -0.0860   0.0993   1.0000
  18.350   0.9221   0.25012   0.24289  -0.0877   0.0989   1.0000
  18.450   0.9224   0.25003   0.24278  -0.0892   0.0982   1.0000
  18.750   0.9286   0.25247   0.24520  -0.0926   0.0942   1.0000
  18.500   0.9228   0.25014   0.24288  -0.0899   0.0976   1.0000
  18.600   0.9246   0.25083   0.24356  -0.0911   0.0963   1.0000
  18.700   0.9271   0.25184   0.24458  -0.0921   0.0949   1.0000
  19.000   0.9372   0.25593   0.24867  -0.0942   0.0907   1.0000
  18.750   0.9286   0.25247   0.24520  -0.0926   0.0942   1.0000
  18.850   0.9318   0.25375   0.24648  -0.0933   0.0928   1.0000
  18.950   0.9353   0.25518   0.24792  -0.0939   0.0913   1.0000
  19.250   0.9599   0.26912   0.26204  -0.0922   0.0868   1.0000
  19.000   0.9372   0.25592   0.24866  -0.0942   0.0907   1.0000
  19.100   0.9415   0.25777   0.25052  -0.0945   0.0894   1.0000
  19.200   0.9482   0.26106   0.25395  -0.0942   0.0880   1.0000
  19.500   0.9589   0.26708   0.25994  -0.0962   0.0864   1.0000
  19.250   0.9599   0.26912   0.26204  -0.0922   0.0868   1.0000
  19.350   0.9592   0.26823   0.26112  -0.0937   0.0867   1.0000
  19.450   0.9587   0.26731   0.26018  -0.0954   0.0865   1.0000
  19.750   0.9609   0.26662   0.25945  -0.1000   0.0847   1.0000
  19.500   0.9589   0.26708   0.25994  -0.0962   0.0864   1.0000
  19.600   0.9590   0.26644   0.25928  -0.0978   0.0859   1.0000
  19.700   0.9599   0.26638   0.25921  -0.0994   0.0851   1.0000
  20.000   0.9674   0.26893   0.26174  -0.1026   0.0812   1.0000
  19.750   0.9609   0.26662   0.25944  -0.1000   0.0847   1.0000
  19.850   0.9632   0.26737   0.26019  -0.1011   0.0836   1.0000
  19.950   0.9659   0.26835   0.26116  -0.1021   0.0820   1.0000
   0.000   0.0298   0.01681   0.00653  -0.0130   1.0000   1.0000
   0.250   0.0455   0.01723   0.00675  -0.0121   1.0000   1.0000
   0.150   0.0392   0.01705   0.00663  -0.0124   1.0000   1.0000
   0.050   0.0329   0.01689   0.00658  -0.0128   1.0000   1.0000
  -0.250   0.0145   0.01642   0.00630  -0.0140   1.0000   1.0000
   0.000   0.0298   0.01681   0.00653  -0.0130   1.0000   1.0000
  -0.100   0.0236   0.01665   0.00643  -0.0133   1.0000   1.0000
  -0.200   0.0175   0.01650   0.00634  -0.0137   1.0000   1.0000
  -0.500  -0.0002   0.01607   0.00612  -0.0151   1.0000   1.0000
  -0.250   0.0145   0.01642   0.00630  -0.0140   1.0000   1.0000
  -0.350   0.0085   0.01628   0.00622  -0.0144   1.0000   1.0000
  -0.450   0.0026   0.01614   0.00615  -0.0149   1.0000   1.0000
  -0.750  -0.0141   0.01574   0.00599  -0.0165   1.0000   1.0000
  -0.500  -0.0002   0.01607   0.00612  -0.0151   1.0000   1.0000
  -0.600  -0.0059   0.01593   0.00607  -0.0156   1.0000   1.0000
  -0.700  -0.0114   0.01580   0.00602  -0.0162   1.0000   1.0000
  -1.000  -0.0268   0.01544   0.00591  -0.0181   1.0000   1.0000
  -0.750  -0.0141   0.01574   0.00599  -0.0165   1.0000   1.0000
  -0.850  -0.0193   0.01562   0.00596  -0.0171   1.0000   1.0000
  -0.950  -0.0244   0.01550   0.00592  -0.0178   1.0000   1.0000
  -1.250  -0.0384   0.01517   0.00587  -0.0200   1.0000   1.0000
  -1.000  -0.0268   0.01544   0.00591  -0.0181   1.0000   1.0000
  -1.100  -0.0316   0.01533   0.00589  -0.0188   1.0000   1.0000
  -1.200  -0.0362   0.01522   0.00588  -0.0196   1.0000   1.0000
  -1.500  -0.0493   0.01494   0.00595  -0.0222   1.0000   1.0000
  -1.250  -0.0384   0.01517   0.00587  -0.0200   1.0000   1.0000
  -1.350  -0.0428   0.01507   0.00587  -0.0209   1.0000   1.0000
  -1.450  -0.0471   0.01498   0.00588  -0.0217   1.0000   1.0000
  -1.750  -0.0609   0.01478   0.00605  -0.0243   1.0000   1.0000
  -1.500  -0.0493   0.01494   0.00595  -0.0222   1.0000   1.0000
  -1.600  -0.0538   0.01487   0.00598  -0.0231   1.0000   1.0000
  -1.700  -0.0584   0.01481   0.00602  -0.0239   1.0000   1.0000
  -2.000  -0.0744   0.01470   0.00625  -0.0263   1.0000   1.0000
  -1.750  -0.0609   0.01478   0.00605  -0.0243   1.0000   1.0000
  -1.850  -0.0661   0.01474   0.00612  -0.0251   1.0000   1.0000
  -1.950  -0.0715   0.01471   0.00620  -0.0259   1.0000   1.0000
  -2.250  -0.0905   0.01469   0.00658  -0.0278   1.0000   1.0000
  -2.000  -0.0744   0.01470   0.00625  -0.0263   1.0000   1.0000
  -2.100  -0.0806   0.01469   0.00637  -0.0269   1.0000   1.0000
  -2.200  -0.0871   0.01469   0.00650  -0.0275   1.0000   1.0000
  -2.500  -0.1089   0.01475   0.00708  -0.0290   1.0000   1.0000
  -2.250  -0.0905   0.01469   0.00658  -0.0278   1.0000   1.0000
  -2.350  -0.0977   0.01471   0.00676  -0.0283   1.0000   1.0000
  -2.450  -0.1051   0.01473   0.00696  -0.0288   1.0000   1.0000
  -2.750  -0.1286   0.01488   0.00785  -0.0298   1.0000   1.0000
  -2.500  -0.1089   0.01475   0.00708  -0.0290   1.0000   1.0000
  -2.600  -0.1166   0.01479   0.00733  -0.0294   1.0000   1.0000
  -2.700  -0.1246   0.01484   0.00765  -0.0297   1.0000   1.0000
  -3.000  -0.2315   0.02103   0.01103  -0.0215   1.0000   0.2236
  -2.750  -0.2084   0.01872   0.00935  -0.0201   1.0000   0.3431
  -2.850  -0.2166   0.01961   0.00993  -0.0207   1.0000   0.2870
  -2.950  -0.2264   0.02054   0.01064  -0.0213   1.0000   0.2426
  -3.250  -0.2561   0.02340   0.01327  -0.0229   1.0000   0.1562
  -3.000  -0.2315   0.02103   0.01103  -0.0215   1.0000   0.2236
  -3.100  -0.2400   0.02184   0.01171  -0.0220   1.0000   0.1857
  -3.200  -0.2511   0.02286   0.01278  -0.0226   1.0000   0.1640
  -3.500  -0.2790   0.02555   0.01530  -0.0241   1.0000   0.1189
  -3.250  -0.2561   0.02340   0.01327  -0.0229   1.0000   0.1561
  -3.350  -0.2645   0.02412   0.01389  -0.0234   1.0000   0.1336
  -3.450  -0.2744   0.02496   0.01482  -0.0239   1.0000   0.1225
  -3.750  -0.3038   0.02804   0.01805  -0.0253   1.0000   0.1044
  -3.500  -0.2790   0.02555   0.01530  -0.0241   1.0000   0.1189
  -3.600  -0.2900   0.02658   0.01662  -0.0247   1.0000   0.1144
  -3.700  -0.2996   0.02745   0.01754  -0.0252   1.0000   0.1079
  -4.000  -0.3269   0.03046   0.02063  -0.0262   1.0000   0.0920
  -3.750  -0.3038   0.02804   0.01805  -0.0253   1.0000   0.1044
  -3.850  -0.3141   0.02888   0.01923  -0.0258   1.0000   0.0992
  -3.950  -0.3227   0.02971   0.01994  -0.0261   1.0000   0.0932
  -4.250  -0.3517   0.03357   0.02434  -0.0272   1.0000   0.0912
  -4.000  -0.3269   0.03046   0.02063  -0.0262   1.0000   0.0920
  -4.100  -0.3371   0.03162   0.02207  -0.0267   1.0000   0.0913
  -4.200  -0.3469   0.03291   0.02358  -0.0271   1.0000   0.0911
  -4.500  -0.3763   0.03704   0.02860  -0.0281   1.0000   0.0947
  -4.250  -0.3517   0.03357   0.02434  -0.0272   1.0000   0.0912
  -4.350  -0.3611   0.03496   0.02589  -0.0276   1.0000   0.0914
  -4.450  -0.3702   0.03647   0.02752  -0.0279   1.0000   0.0919
  -4.750  -0.3987   0.04156   0.03375  -0.0282   1.0000   0.1019
  -4.500  -0.3763   0.03704   0.02860  -0.0281   1.0000   0.0947
  -4.600  -0.3857   0.03895   0.03088  -0.0281   1.0000   0.0979
  -4.700  -0.3944   0.04073   0.03286  -0.0282   1.0000   0.1007
  -5.000  -0.4209   0.04664   0.03941  -0.0275   1.0000   0.1155
  -4.750  -0.3987   0.04156   0.03376  -0.0282   1.0000   0.1019
  -4.850  -0.4069   0.04324   0.03545  -0.0284   1.0000   0.1040
  -4.950  -0.4169   0.04568   0.03842  -0.0275   1.0000   0.1133
  -5.000  -0.4209   0.04664   0.03941  -0.0275   1.0000   0.1155
  -5.100  -0.4290   0.04853   0.04113  -0.0281   1.0000   0.1187
  -5.500  -0.4800   0.06836   0.06281   0.0106   1.0000   0.3763
  -5.500  -0.4800   0.06836   0.06281   0.0106   1.0000   0.3763
  -5.600  -0.4811   0.06947   0.06389   0.0104   1.0000   0.3642
  -5.700  -0.4826   0.07073   0.06512   0.0101   1.0000   0.3525
  -6.000  -0.4919   0.07484   0.06915   0.0090   1.0000   0.3247
  -5.750  -0.4883   0.07170   0.06608   0.0091   1.0000   0.3493
  -5.850  -0.4879   0.07279   0.06713   0.0093   1.0000   0.3381
  -5.950  -0.4904   0.07422   0.06854   0.0092   1.0000   0.3299
  -6.250  -0.5101   0.07937   0.07364   0.0060   1.0000   0.3070
  -6.100  -0.4959   0.07644   0.07072   0.0086   1.0000   0.3176
  -6.200  -0.5010   0.07782   0.07208   0.0079   1.0000   0.3090
  -6.500  -0.5022   0.08170   0.07586   0.0090   1.0000   0.2864
  -6.250  -0.5101   0.07937   0.07364   0.0060   1.0000   0.3070
  -6.350  -0.5015   0.07973   0.07395   0.0085   1.0000   0.2970
  -6.450  -0.5061   0.08148   0.07566   0.0080   1.0000   0.2914
  -6.750  -0.5083   0.08518   0.07927   0.0091   1.0000   0.2708
  -6.500  -0.5022   0.08170   0.07586   0.0090   1.0000   0.2864
  -6.700  -0.5061   0.08448   0.07858   0.0093   1.0000   0.2745
  -7.000  -0.5108   0.08850   0.08251   0.0095   1.0000   0.2575
  -6.750  -0.5083   0.08518   0.07927   0.0091   1.0000   0.2708
  -6.850  -0.5224   0.08783   0.08193   0.0068   1.0000   0.2659
  -6.950  -0.5087   0.08781   0.08182   0.0096   1.0000   0.2604
  -7.250  -0.5112   0.09174   0.08565   0.0100   1.0000   0.2458
  -7.000  -0.5108   0.08850   0.08251   0.0095   1.0000   0.2575
  -7.100  -0.5267   0.09134   0.08538   0.0075   1.0000   0.2524
  -7.200  -0.5116   0.09127   0.08521   0.0098   1.0000   0.2484
  -7.500  -0.5151   0.09525   0.08909   0.0103   1.0000   0.2352
  -7.350  -0.5298   0.09485   0.08881   0.0080   1.0000   0.2389
  -7.450  -0.5177   0.09495   0.08882   0.0098   1.0000   0.2368
  -7.750  -0.5221   0.09904   0.09282   0.0103   1.0000   0.2236
  -7.500  -0.5151   0.09525   0.08909   0.0103   1.0000   0.2352
  -7.600  -0.5370   0.09870   0.09260   0.0077   1.0000   0.2257
  -7.700  -0.5248   0.09874   0.09255   0.0097   1.0000   0.2244
  -8.000  -0.5308   0.10310   0.09683   0.0100   1.0000   0.2113
  -7.750  -0.5221   0.09904   0.09282   0.0103   1.0000   0.2236
  -7.850  -0.5190   0.09984   0.09357   0.0109   1.0000   0.2174
  -7.950  -0.5359   0.10304   0.09681   0.0091   1.0000   0.2119
  -8.250  -0.5444   0.10777   0.10147   0.0092   1.0000   0.1988
  -8.000  -0.5308   0.10310   0.09683   0.0100   1.0000   0.2113
  -8.100  -0.5232   0.10348   0.09714   0.0116   1.0000   0.2088
  -8.200  -0.5231   0.10457   0.09821   0.0121   1.0000   0.2046
  -8.500  -0.5276   0.10881   0.10237   0.0131   1.0000   0.1944
  -8.250  -0.5444   0.10776   0.10147   0.0092   1.0000   0.1988
  -8.350  -0.5356   0.10798   0.10162   0.0110   1.0000   0.1979
  -8.450  -0.5291   0.10840   0.10197   0.0125   1.0000   0.1959
  -8.750  -0.5388   0.11325   0.10678   0.0127   1.0000   0.1841
  -8.500  -0.5276   0.10881   0.10237   0.0131   1.0000   0.1944
  -8.600  -0.5305   0.11010   0.10365   0.0131   1.0000   0.1897
  -8.700  -0.5435   0.11320   0.10676   0.0117   1.0000   0.1848
  -9.000  -0.5370   0.11572   0.10918   0.0145   1.0000   0.1759
  -8.750  -0.5388   0.11325   0.10678   0.0127   1.0000   0.1841
  -8.850  -0.5341   0.11380   0.10728   0.0141   1.0000   0.1820
  -8.950  -0.5338   0.11485   0.10831   0.0147   1.0000   0.1784
  -9.250  -0.5426   0.11974   0.11314   0.0153   1.0000   0.1697
  -9.000  -0.5370   0.11572   0.10918   0.0145   1.0000   0.1759
  -9.100  -0.5498   0.11901   0.11248   0.0131   1.0000   0.1714
  -9.200  -0.5462   0.11966   0.11309   0.0144   1.0000   0.1707
  -9.500  -0.5489   0.12320   0.11657   0.0159   1.0000   0.1609
  -9.250  -0.5426   0.11974   0.11314   0.0153   1.0000   0.1697
  -9.350  -0.5402   0.12053   0.11389   0.0163   1.0000   0.1669
  -9.450  -0.5432   0.12191   0.11527   0.0165   1.0000   0.1631
  -9.750  -0.5527   0.12713   0.12054   0.0172   1.0000   0.1569
  -9.500  -0.5674   0.12648   0.12002   0.0131   1.0000   0.1587
  -9.600  -0.5623   0.12682   0.12032   0.0146   1.0000   0.1583
  -9.700  -0.5550   0.12692   0.12036   0.0165   1.0000   0.1575
 -10.000  -0.5518   0.12961   0.12297   0.0192   1.0000   0.1504
  -9.750  -0.5527   0.12713   0.12054   0.0172   1.0000   0.1569
  -9.850  -0.5498   0.12776   0.12114   0.0184   1.0000   0.1548
  -9.950  -0.5502   0.12891   0.12227   0.0190   1.0000   0.1514
 -10.250  -0.5714   0.13615   0.12952   0.0181   1.0000   0.1448
 -10.000  -0.5518   0.12962   0.12297   0.0192   1.0000   0.1504
 -10.100  -0.5602   0.13192   0.12529   0.0186   1.0000   0.1472
 -10.200  -0.5745   0.13612   0.12951   0.0172   1.0000   0.1450
 -10.500  -0.5621   0.13712   0.13039   0.0216   1.0000   0.1419
 -10.250  -0.5714   0.13615   0.12952   0.0181   1.0000   0.1448
 -10.350  -0.5663   0.13638   0.12971   0.0197   1.0000   0.1441
 -10.450  -0.5626   0.13675   0.13003   0.0211   1.0000   0.1427
 -10.750  -0.5666   0.14042   0.13367   0.0229   1.0000   0.1361
 -10.500  -0.5621   0.13712   0.13039   0.0216   1.0000   0.1419
 -10.600  -0.5622   0.13819   0.13145   0.0224   1.0000   0.1395
 -10.700  -0.5646   0.13960   0.13285   0.0228   1.0000   0.1372
 -11.000  -0.5865   0.14743   0.14068   0.0218   1.0000   0.1315
 -10.750  -0.5666   0.14042   0.13367   0.0229   1.0000   0.1361
 -10.850  -0.5759   0.14313   0.13640   0.0221   1.0000   0.1334
 -10.950  -0.5888   0.14736   0.14063   0.0210   1.0000   0.1317
 -11.250  -0.5784   0.14822   0.14140   0.0253   1.0000   0.1294
 -11.000  -0.5865   0.14743   0.14068   0.0218   1.0000   0.1315
 -11.100  -0.5826   0.14766   0.14088   0.0233   1.0000   0.1310
 -11.200  -0.5792   0.14794   0.14113   0.0247   1.0000   0.1301
 -11.500  -0.5806   0.15095   0.14409   0.0272   1.0000   0.1247
 -11.250  -0.5784   0.14822   0.14140   0.0253   1.0000   0.1294
 -11.350  -0.5778   0.14910   0.14225   0.0263   1.0000   0.1275
 -11.450  -0.5793   0.15031   0.14346   0.0269   1.0000   0.1255
 -11.750  -0.6092   0.16030   0.15348   0.0249   1.0000   0.1185
 -11.500  -0.5806   0.15095   0.14409   0.0272   1.0000   0.1247
 -11.600  -0.5844   0.15262   0.14576   0.0274   1.0000   0.1224
 -11.700  -0.5917   0.15500   0.14815   0.0271   1.0000   0.1203
 -12.000  -0.6005   0.16055   0.15364   0.0285   1.0000   0.1176
 -11.750  -0.6092   0.16030   0.15348   0.0249   1.0000   0.1185
 -11.850  -0.6060   0.16043   0.15359   0.0263   1.0000   0.1183
 -11.950  -0.6021   0.16047   0.15359   0.0278   1.0000   0.1179
 -12.250  -0.5979   0.16196   0.15500   0.0313   1.0000   0.1144
 -12.000  -0.6005   0.16055   0.15364   0.0285   1.0000   0.1176
 -12.100  -0.5986   0.16085   0.15393   0.0298   1.0000   0.1168
 -12.200  -0.5979   0.16148   0.15453   0.0309   1.0000   0.1155
 -12.500  -0.6040   0.16521   0.15824   0.0328   1.0000   0.1102
 -12.250  -0.5979   0.16196   0.15500   0.0313   1.0000   0.1144
 -12.350  -0.5997   0.16311   0.15614   0.0320   1.0000   0.1128
 -12.450  -0.6023   0.16452   0.15754   0.0326   1.0000   0.1109
 -12.750  -0.6327   0.17559   0.16865   0.0307   1.0000   0.1052
 -12.500  -0.6040   0.16522   0.15824   0.0328   1.0000   0.1102
 -12.600  -0.6083   0.16699   0.16001   0.0330   1.0000   0.1085
 -12.700  -0.6172   0.17013   0.16318   0.0325   1.0000   0.1065
 -13.000  -0.6257   0.17548   0.16846   0.0342   1.0000   0.1045
 -12.750  -0.6327   0.17558   0.16865   0.0307   1.0000   0.1052
 -12.850  -0.6304   0.17568   0.16872   0.0320   1.0000   0.1050
 -12.950  -0.6273   0.17556   0.16857   0.0335   1.0000   0.1047
 -13.250  -0.6244   0.17645   0.16939   0.0371   1.0000   0.1026
 -13.000  -0.6257   0.17548   0.16846   0.0342   1.0000   0.1045
 -13.100  -0.6252   0.17582   0.16879   0.0353   1.0000   0.1041
 -13.200  -0.6247   0.17618   0.16914   0.0365   1.0000   0.1033
 -13.500  -0.6291   0.17917   0.17208   0.0391   1.0000   0.0990
 -13.250  -0.6244   0.17645   0.16939   0.0371   1.0000   0.1026
 -13.350  -0.6257   0.17735   0.17028   0.0380   1.0000   0.1012
 -13.450  -0.6278   0.17851   0.17143   0.0388   1.0000   0.0998
 -13.750  -0.6377   0.18285   0.17576   0.0403   1.0000   0.0956
 -13.500  -0.6291   0.17917   0.17208   0.0391   1.0000   0.0990
 -13.600  -0.6321   0.18050   0.17342   0.0397   1.0000   0.0977
 -13.700  -0.6357   0.18212   0.17502   0.0401   1.0000   0.0960
 -14.000  -0.6622   0.19348   0.18641   0.0390   1.0000   0.0919
 -13.750  -0.6377   0.18285   0.17576   0.0403   1.0000   0.0956
 -13.850  -0.6435   0.18519   0.17811   0.0403   1.0000   0.0940
 -13.950  -0.6636   0.19367   0.18662   0.0383   1.0000   0.0919
 -14.250  -0.6591   0.19321   0.18609   0.0422   1.0000   0.0913
 -14.000  -0.6622   0.19348   0.18641   0.0390   1.0000   0.0919
 -14.100  -0.6611   0.19347   0.18638   0.0402   1.0000   0.0917
 -14.200  -0.6596   0.19326   0.18615   0.0415   1.0000   0.0915
 -14.500  -0.6596   0.19385   0.18668   0.0452   1.0000   0.0897
 -14.250  -0.6591   0.19321   0.18609   0.0422   1.0000   0.0913
 -14.350  -0.6587   0.19328   0.18614   0.0434   1.0000   0.0909
 -14.450  -0.6592   0.19359   0.18643   0.0446   1.0000   0.0902
 -14.750  -0.6651   0.19633   0.18914   0.0474   1.0000   0.0867
 -14.500  -0.6596   0.19384   0.18667   0.0452   1.0000   0.0897
 -14.600  -0.6616   0.19469   0.18751   0.0461   1.0000   0.0887
 -14.700  -0.6637   0.19573   0.18854   0.0470   1.0000   0.0873
 -15.000  -0.6731   0.19961   0.19240   0.0490   1.0000   0.0839
 -14.750  -0.6651   0.19633   0.18913   0.0474   1.0000   0.0867
 -14.850  -0.6681   0.19755   0.19035   0.0481   1.0000   0.0856
 -14.950  -0.6714   0.19892   0.19172   0.0487   1.0000   0.0844
 -15.250  -0.6839   0.20407   0.19687   0.0499   1.0000   0.0809
 -15.000  -0.6731   0.19960   0.19240   0.0490   1.0000   0.0839
 -15.100  -0.6770   0.20119   0.19398   0.0495   1.0000   0.0826
 -15.200  -0.6813   0.20300   0.19579   0.0498   1.0000   0.0814
 -15.500  -0.7048   0.21494   0.20775   0.0492   1.0000   0.0787
 -15.250  -0.6839   0.20408   0.19687   0.0499   1.0000   0.0809
 -15.350  -0.6911   0.20742   0.20024   0.0497   1.0000   0.0798
 -15.450  -0.7048   0.21497   0.20779   0.0486   1.0000   0.0787
 -15.750  -0.7042   0.21420   0.20696   0.0524   1.0000   0.0782
 -15.500  -0.7048   0.21494   0.20775   0.0492   1.0000   0.0787
 -15.600  -0.7042   0.21455   0.20734   0.0505   1.0000   0.0785
 -15.700  -0.7044   0.21438   0.20715   0.0518   1.0000   0.0783
 -16.000  -0.7069   0.21457   0.20739   0.0555   1.0000   0.0772
 -15.750  -0.7042   0.21420   0.20696   0.0524   1.0000   0.0782
 -15.850  -0.7049   0.21421   0.20695   0.0537   1.0000   0.0779
 -15.950  -0.7061   0.21436   0.20719   0.0549   1.0000   0.0775
 -16.250  -0.7130   0.21656   0.20936   0.0580   1.0000   0.0752
 -16.000  -0.7069   0.21457   0.20739   0.0555   1.0000   0.0772
 -16.100  -0.7088   0.21515   0.20795   0.0566   1.0000   0.0763
 -16.200  -0.7115   0.21605   0.20885   0.0575   1.0000   0.0755
 -16.500  -0.7208   0.21950   0.21229   0.0600   1.0000   0.0728
 -16.250  -0.7130   0.21656   0.20936   0.0580   1.0000   0.0752
 -16.350  -0.7160   0.21769   0.21048   0.0588   1.0000   0.0742
 -16.450  -0.7191   0.21888   0.21167   0.0596   1.0000   0.0732
 -16.750  -0.7294   0.22277   0.21555   0.0617   1.0000   0.0706
 -16.500  -0.7208   0.21950   0.21229   0.0600   1.0000   0.0728
 -16.600  -0.7241   0.22077   0.21355   0.0607   1.0000   0.0718
 -16.700  -0.7276   0.22211   0.21489   0.0614   1.0000   0.0709
 -17.000  -0.7392   0.22672   0.21951   0.0631   1.0000   0.0684
 -16.750  -0.7294   0.22277   0.21556   0.0617   1.0000   0.0706
 -16.850  -0.7331   0.22422   0.21700   0.0623   1.0000   0.0697
 -16.950  -0.7371   0.22583   0.21861   0.0629   1.0000   0.0688
 -17.250  -0.7648   0.24268   0.23551   0.0612   1.0000   0.0658
 -17.000  -0.7392   0.22672   0.21951   0.0631   1.0000   0.0684
 -17.100  -0.7440   0.22895   0.22174   0.0634   1.0000   0.0675
 -17.200  -0.7503   0.23237   0.22518   0.0633   1.0000   0.0666
 -17.500  -0.7659   0.24151   0.23430   0.0643   1.0000   0.0655
 -17.250  -0.7648   0.24268   0.23551   0.0612   1.0000   0.0658
 -17.350  -0.7653   0.24231   0.23513   0.0624   1.0000   0.0657
 -17.450  -0.7656   0.24170   0.23450   0.0637   1.0000   0.0656
 -17.750  -0.7687   0.24079   0.23354   0.0675   1.0000   0.0652
 -17.500  -0.7659   0.24151   0.23430   0.0643   1.0000   0.0655
 -17.600  -0.7669   0.24119   0.23397   0.0656   1.0000   0.0654
 -17.700  -0.7681   0.24092   0.23368   0.0669   1.0000   0.0653
 -18.000  -0.7736   0.24113   0.23386   0.0705   1.0000   0.0645
 -17.750  -0.7687   0.24079   0.23354   0.0675   1.0000   0.0652
 -17.850  -0.7705   0.24084   0.23358   0.0687   1.0000   0.0650
 -17.950  -0.7724   0.24089   0.23362   0.0699   1.0000   0.0647
 -18.250  -0.7804   0.24263   0.23533   0.0732   1.0000   0.0631
 -18.000  -0.7736   0.24114   0.23387   0.0705   1.0000   0.0645
 -18.100  -0.7760   0.24146   0.23418   0.0717   1.0000   0.0639
 -18.200  -0.7789   0.24222   0.23493   0.0727   1.0000   0.0634
 -18.500  -0.7884   0.24521   0.23790   0.0755   1.0000   0.0612
 -18.250  -0.7804   0.24263   0.23533   0.0732   1.0000   0.0631
 -18.350  -0.7835   0.24359   0.23629   0.0741   1.0000   0.0624
 -18.450  -0.7867   0.24463   0.23733   0.0750   1.0000   0.0615
 -18.750  -0.7970   0.24816   0.24086   0.0775   1.0000   0.0594
 -18.500  -0.7884   0.24521   0.23790   0.0755   1.0000   0.0612
 -18.600  -0.7917   0.24632   0.23902   0.0763   1.0000   0.0606
 -18.700  -0.7952   0.24752   0.24021   0.0771   1.0000   0.0597
 -19.000  -0.8058   0.25130   0.24400   0.0794   1.0000   0.0576
 -18.750  -0.7970   0.24817   0.24086   0.0775   1.0000   0.0594
 -18.850  -0.8005   0.24940   0.24210   0.0783   1.0000   0.0586
 -18.950  -0.8040   0.25065   0.24334   0.0790   1.0000   0.0579
 -19.250  -0.8151   0.25501   0.24771   0.0810   1.0000   0.0555
 -19.000  -0.8058   0.25130   0.24400   0.0794   1.0000   0.0576
 -19.100  -0.8093   0.25266   0.24536   0.0801   1.0000   0.0568
 -19.200  -0.8131   0.25411   0.24681   0.0807   1.0000   0.0561
 -19.500  -0.8268   0.26141   0.25414   0.0817   1.0000   0.0537
 -19.250  -0.8151   0.25500   0.24770   0.0810   1.0000   0.0555
 -19.350  -0.8193   0.25684   0.24955   0.0815   1.0000   0.0548
 -19.450  -0.8242   0.25976   0.25248   0.0816   1.0000   0.0540
 -19.750  -0.8423   0.27316   0.26588   0.0819   1.0000   0.0527
 -19.500  -0.8268   0.26141   0.25414   0.0817   1.0000   0.0537
 -19.600  -0.8407   0.27436   0.26711   0.0799   1.0000   0.0528
 -19.700  -0.8415   0.27332   0.26605   0.0813   1.0000   0.0527
 -20.000  -0.8463   0.27189   0.26459   0.0850   1.0000   0.0525
 -19.750  -0.8423   0.27316   0.26588   0.0819   1.0000   0.0527
