  
       XFOIL         Version 6.99
  
 Calculated polar for: NACA 2.5411                                     
  
 1 1 Reynolds number fixed          Mach number fixed         
  
 xtrf =   1.000 (top)        1.000 (bottom)  
 Mach =   0.000     Re =     0.050 e 6     Ncrit =   9.000
  
   alpha    CL        CD       CDp       CM     Top_Xtr  Bot_Xtr
  ------ -------- --------- --------- -------- -------- --------
   0.000  -0.0696   0.02390   0.01429  -0.0148   1.0000   1.0000
   0.250  -0.0237   0.02513   0.01531  -0.0200   0.9875   1.0000
   0.500   0.0263   0.02640   0.01639  -0.0256   0.9725   1.0000
   0.750   0.0743   0.02754   0.01738  -0.0307   0.9573   1.0000
   1.000   0.1180   0.02853   0.01825  -0.0349   0.9422   1.0000
   1.250   0.1600   0.02944   0.01907  -0.0385   0.9268   1.0000
   1.500   0.1995   0.03026   0.01982  -0.0416   0.9115   1.0000
   1.750   0.2361   0.03102   0.02054  -0.0441   0.8963   1.0000
   2.000   0.2716   0.03176   0.02124  -0.0463   0.8810   1.0000
   2.250   0.3054   0.03248   0.02195  -0.0480   0.8658   1.0000
   2.500   0.3381   0.03318   0.02265  -0.0495   0.8508   1.0000
   2.750   0.3698   0.03387   0.02336  -0.0507   0.8357   1.0000
   3.000   0.4013   0.03455   0.02407  -0.0518   0.8206   1.0000
   3.250   0.4318   0.03523   0.02479  -0.0526   0.8056   1.0000
   3.500   0.4625   0.03589   0.02550  -0.0534   0.7904   1.0000
   3.750   0.4935   0.03650   0.02618  -0.0540   0.7751   1.0000
   4.000   0.5246   0.03707   0.02683  -0.0546   0.7597   1.0000
   4.250   0.5560   0.03759   0.02744  -0.0550   0.7442   1.0000
   4.500   0.5888   0.03798   0.02796  -0.0554   0.7283   1.0000
   4.750   0.6252   0.03812   0.02823  -0.0559   0.7120   1.0000
   5.000   0.6650   0.03801   0.02830  -0.0565   0.6957   1.0000
   5.250   0.7093   0.03750   0.02797  -0.0572   0.6788   1.0000
   5.500   0.7569   0.03655   0.02722  -0.0577   0.6613   1.0000
   5.750   0.8062   0.03528   0.02616  -0.0580   0.6424   1.0000
   6.000   0.8275   0.03543   0.02644  -0.0556   0.6195   1.0000
   6.250   0.8886   0.03296   0.02415  -0.0561   0.5950   1.0000
   6.500   0.9220   0.03203   0.02331  -0.0542   0.5663   1.0000
   6.750   0.9571   0.03091   0.02222  -0.0523   0.5337   1.0000
   7.000   0.9812   0.03039   0.02169  -0.0494   0.4981   1.0000
   7.250   1.0023   0.02998   0.02121  -0.0462   0.4578   1.0000
   7.500   1.0181   0.02988   0.02095  -0.0425   0.4129   1.0000
   7.750   1.0299   0.03006   0.02086  -0.0385   0.3635   1.0000
   8.000   1.0391   0.03083   0.02117  -0.0345   0.3140   1.0000
   8.250   1.0472   0.03225   0.02227  -0.0309   0.2707   1.0000
   8.500   1.0595   0.03402   0.02376  -0.0283   0.2358   1.0000
   8.750   1.0772   0.03599   0.02543  -0.0266   0.2081   1.0000
   9.000   1.0924   0.03815   0.02771  -0.0247   0.1879   1.0000
   9.250   1.1110   0.04047   0.03005  -0.0233   0.1716   1.0000
   9.500   1.1288   0.04297   0.03264  -0.0220   0.1590   1.0000
   9.750   1.1494   0.04574   0.03541  -0.0211   0.1489   1.0000
  10.000   1.1569   0.04840   0.03846  -0.0186   0.1417   1.0000
  10.250   1.1738   0.05160   0.04173  -0.0176   0.1351   1.0000
  10.500   1.1696   0.05490   0.04555  -0.0142   0.1324   1.0000
  10.750   1.1641   0.05826   0.04931  -0.0111   0.1298   1.0000
  11.000   1.1618   0.06150   0.05278  -0.0085   0.1267   1.0000
  11.250   1.1795   0.06532   0.05653  -0.0083   0.1222   1.0000
  11.500   1.1630   0.06912   0.06066  -0.0050   0.1220   1.0000
  11.750   1.1426   0.07295   0.06474  -0.0018   0.1221   1.0000
  12.000   1.1217   0.07717   0.06916   0.0006   0.1224   1.0000
  12.250   1.0016   0.08730   0.07978  -0.0007   0.1333   1.0000
  12.500   0.9705   0.09543   0.08796  -0.0040   0.1352   1.0000
  12.750   0.9498   0.10346   0.09602  -0.0073   0.1363   1.0000
  12.750   0.9498   0.10346   0.09602  -0.0073   0.1363   1.0000
  13.000   0.8113   0.13933   0.13157  -0.0338   0.1774   1.0000
  13.100   0.8145   0.14148   0.13373  -0.0342   0.1783   1.0000
  13.200   0.8217   0.14345   0.13573  -0.0340   0.1791   1.0000
  13.500   0.5833   0.15255   0.14538  -0.0416   0.2908   1.0000
  13.750   0.6028   0.15803   0.15093  -0.0418   0.2832   1.0000
  14.000   0.5878   0.15808   0.15099  -0.0432   0.2760   1.0000
  14.250   0.6103   0.16417   0.15713  -0.0432   0.2683   1.0000
  14.500   0.5936   0.16360   0.15657  -0.0449   0.2611   1.0000
  14.750   0.6194   0.17043   0.16345  -0.0447   0.2534   1.0000
  15.000   0.6002   0.16926   0.16228  -0.0467   0.2477   1.0000
  15.250   0.6170   0.17403   0.16711  -0.0468   0.2398   1.0000
  15.500   0.6097   0.17537   0.16845  -0.0485   0.2353   1.0000
  15.750   0.6172   0.17833   0.17145  -0.0491   0.2263   1.0000
  16.000   0.6231   0.18219   0.17534  -0.0501   0.2223   1.0000
  16.250   0.6185   0.18322   0.17640  -0.0518   0.2154   1.0000
  16.500   0.6406   0.18980   0.18304  -0.0515   0.2093   1.0000
  16.750   0.6287   0.18965   0.18288  -0.0539   0.2058   1.0000
  17.000   0.6328   0.19212   0.18538  -0.0549   0.1979   1.0000
  17.250   0.6488   0.19817   0.19146  -0.0551   0.1936   1.0000
  17.500   0.6383   0.19777   0.19107  -0.0576   0.1886   1.0000
  17.750   0.6455   0.20103   0.19437  -0.0584   0.1827   1.0000
  18.000   0.6630   0.20795   0.20133  -0.0585   0.1791   1.0000
  18.250   0.6510   0.20689   0.20029  -0.0613   0.1753   1.0000
  18.500   0.6563   0.20975   0.20318  -0.0624   0.1690   1.0000
  18.750   0.6750   0.21708   0.21055  -0.0622   0.1647   1.0000
  19.000   0.6640   0.21606   0.20953  -0.0651   0.1615   1.0000
  19.250   0.6671   0.21869   0.21219  -0.0665   0.1562   1.0000
  19.500   0.6785   0.22328   0.21684  -0.0669   0.1520   1.0000
  19.750   0.6853   0.22801   0.22158  -0.0681   0.1499   1.0000
  20.000   0.6796   0.22832   0.22192  -0.0706   0.1466   1.0000
   0.000  -0.0289   0.01067   0.00204  -0.0252   0.9644   1.0000
  -0.250  -0.0705   0.00981   0.00144  -0.0211   0.9797   1.0000
  -0.500  -0.1182   0.00885   0.00082  -0.0156   0.9952   1.0000
  -0.750  -0.1444   0.00817   0.00045  -0.0138   1.0000   1.0000
  -1.000  -0.1579   0.00776   0.00037  -0.0142   1.0000   1.0000
  -1.000  -0.1579   0.00776   0.00037  -0.0142   1.0000   1.0000
  -1.100  -0.1633   0.00763   0.00043  -0.0143   1.0000   1.0000
  -1.200  -0.1683   0.00755   0.00058  -0.0141   1.0000   1.0000
  -1.500  -0.2281   0.00809  -0.00007  -0.0113   1.0000   0.5894
  -1.750  -0.2421   0.00863  -0.00014  -0.0136   1.0000   0.4969
  -2.000  -0.2592   0.00919   0.00006  -0.0151   1.0000   0.4285
  -2.250  -0.2773   0.00983   0.00048  -0.0162   1.0000   0.3760
  -2.500  -0.2942   0.01057   0.00098  -0.0176   1.0000   0.3363
  -2.750  -0.3107   0.02554   0.01504  -0.0188   1.0000   0.3194
  -3.000  -0.3312   0.02639   0.01582  -0.0199   1.0000   0.2871
  -3.250  -0.3514   0.02728   0.01682  -0.0211   1.0000   0.2605
  -3.500  -0.3713   0.02830   0.01779  -0.0223   1.0000   0.2401
  -3.750  -0.3913   0.02945   0.01897  -0.0234   1.0000   0.2222
  -4.000  -0.4114   0.03073   0.02042  -0.0246   1.0000   0.2075
  -4.250  -0.4311   0.03224   0.02228  -0.0258   1.0000   0.1947
  -4.500  -0.4498   0.03418   0.02458  -0.0269   1.0000   0.1850
  -4.750  -0.4675   0.03578   0.02610  -0.0282   1.0000   0.1760
  -5.000  -0.4834   0.03864   0.02966  -0.0293   1.0000   0.1709
  -5.250  -0.4977   0.04120   0.03261  -0.0305   1.0000   0.1654
  -5.500  -0.5111   0.04395   0.03558  -0.0318   1.0000   0.1625
  -5.750  -0.5237   0.04695   0.03864  -0.0332   1.0000   0.1602
  -6.000  -0.5307   0.05081   0.04291  -0.0341   1.0000   0.1599
  -6.250  -0.5368   0.05471   0.04710  -0.0352   1.0000   0.1604
  -6.500  -0.5257   0.06194   0.05492  -0.0337   1.0000   0.1742
  -6.750  -0.3851   0.08097   0.07414  -0.0081   1.0000   0.3930
  -7.000  -0.3969   0.08461   0.07777  -0.0095   1.0000   0.3828
  -7.250  -0.4077   0.08800   0.08113  -0.0114   1.0000   0.3676
  -7.500  -0.4120   0.09089   0.08396  -0.0135   1.0000   0.3515
  -7.750  -0.3850   0.09128   0.08417  -0.0156   1.0000   0.3395
  -8.000  -0.3799   0.09367   0.08645  -0.0169   1.0000   0.3267
  -8.250  -0.3885   0.09718   0.08992  -0.0180   1.0000   0.3166
  -8.500  -0.3968   0.10025   0.09297  -0.0192   1.0000   0.3047
  -8.750  -0.3822   0.10202   0.09461  -0.0195   1.0000   0.2958
  -9.000  -0.4040   0.10682   0.09942  -0.0207   1.0000   0.2860
  -9.250  -0.3885   0.10777   0.10026  -0.0207   1.0000   0.2758
  -9.500  -0.3935   0.11120   0.10364  -0.0211   1.0000   0.2675
  -9.750  -0.4098   0.11511   0.10758  -0.0222   1.0000   0.2558
 -10.000  -0.3948   0.11667   0.10902  -0.0213   1.0000   0.2496
 -10.250  -0.4066   0.12023   0.11257  -0.0219   1.0000   0.2410
 -10.500  -0.4075   0.12356   0.11584  -0.0215   1.0000   0.2365
 -10.750  -0.4048   0.12559   0.11782  -0.0211   1.0000   0.2278
 -11.000  -0.4244   0.13112   0.12336  -0.0218   1.0000   0.2220
 -11.250  -0.4094   0.13155   0.12370  -0.0203   1.0000   0.2148
 -11.500  -0.4408   0.13867   0.13089  -0.0220   1.0000   0.2067
 -11.750  -0.4195   0.13808   0.13018  -0.0197   1.0000   0.2029
 -12.000  -0.4244   0.14091   0.13299  -0.0193   1.0000   0.1957
 -12.250  -0.4495   0.14799   0.14011  -0.0203   1.0000   0.1909
 -12.500  -0.4319   0.14738   0.13939  -0.0180   1.0000   0.1872
 -12.750  -0.4360   0.15011   0.14211  -0.0173   1.0000   0.1809
 -13.000  -0.4682   0.15879   0.15084  -0.0188   1.0000   0.1755
 -13.250  -0.4501   0.15748   0.14943  -0.0162   1.0000   0.1735
 -13.500  -0.4491   0.15920   0.15112  -0.0149   1.0000   0.1675
 -13.750  -0.4752   0.16637   0.15837  -0.0160   1.0000   0.1609
 -14.000  -0.4707   0.16799   0.15991  -0.0142   1.0000   0.1591
 -14.250  -0.4655   0.16853   0.16040  -0.0122   1.0000   0.1547
 -14.500  -0.4726   0.17162   0.16349  -0.0114   1.0000   0.1498
 -14.750  -0.4948   0.17874   0.17065  -0.0121   1.0000   0.1458
 -15.000  -0.4967   0.18157   0.17343  -0.0106   1.0000   0.1444
 -15.250  -0.4906   0.18116   0.17297  -0.0081   1.0000   0.1414
 -15.500  -0.4956   0.18365   0.17545  -0.0068   1.0000   0.1368
 -15.750  -0.5086   0.18809   0.17990  -0.0066   1.0000   0.1322
 -16.000  -0.5257   0.19556   0.18739  -0.0066   1.0000   0.1297
 -16.250  -0.5188   0.19400   0.18577  -0.0037   1.0000   0.1279
 -16.500  -0.5221   0.19572   0.18747  -0.0019   1.0000   0.1238
 -16.750  -0.5302   0.19884   0.19059  -0.0008   1.0000   0.1202
 -17.000  -0.5437   0.20390   0.19567  -0.0006   1.0000   0.1170
 -17.250  -0.5622   0.21269   0.20446  -0.0005   1.0000   0.1153
 -17.500  -0.5563   0.21038   0.20210   0.0025   1.0000   0.1143
 -17.750  -0.5584   0.21104   0.20273   0.0049   1.0000   0.1116
 -18.000  -0.5651   0.21355   0.20525   0.0065   1.0000   0.1082
 -18.250  -0.5746   0.21699   0.20869   0.0075   1.0000   0.1047
 -18.500  -0.5927   0.22508   0.21683   0.0071   1.0000   0.1019
 -18.750  -0.5987   0.22835   0.22006   0.0089   1.0000   0.1010
 -19.000  -0.5984   0.22714   0.21881   0.0118   1.0000   0.0998
 -19.250  -0.6030   0.22845   0.22010   0.0141   1.0000   0.0973
 -19.500  -0.6104   0.23102   0.22267   0.0158   1.0000   0.0947
 -19.750  -0.6189   0.23409   0.22574   0.0172   1.0000   0.0922
 -20.000  -0.6291   0.23805   0.22974   0.0182   1.0000   0.0900
