  
       XFOIL         Version 6.99
  
 Calculated polar for: MH 18  11.16%                                   
  
 1 1 Reynolds number fixed          Mach number fixed         
  
 xtrf =   1.000 (top)        1.000 (bottom)  
 Mach =   0.000     Re =     0.050 e 6     Ncrit =   9.000
  
   alpha    CL        CD       CDp       CM     Top_Xtr  Bot_Xtr
  ------ -------- --------- --------- -------- -------- --------
   0.000  -0.0172   0.02926   0.01901  -0.0229   0.9725   1.0000
  -0.250  -0.0489   0.02835   0.01836  -0.0207   0.9805   1.0000
  -0.150  -0.0379   0.02865   0.01857  -0.0213   0.9774   1.0000
  -0.050  -0.0250   0.02902   0.01884  -0.0222   0.9742   1.0000
   0.250   0.0117   0.03014   0.01968  -0.0245   0.9642   1.0000
   0.000  -0.0172   0.02926   0.01901  -0.0229   0.9725   1.0000
   0.100  -0.0023   0.02973   0.01938  -0.0241   0.9691   1.0000
   0.200   0.0062   0.02998   0.01955  -0.0242   0.9660   1.0000
   0.500   0.0457   0.03124   0.02058  -0.0270   0.9554   1.0000
   0.250   0.0117   0.03014   0.01968  -0.0245   0.9642   1.0000
   0.350   0.0249   0.03055   0.02001  -0.0254   0.9606   1.0000
   0.450   0.0431   0.03116   0.02052  -0.0273   0.9568   1.0000
   0.750   0.0748   0.03219   0.02137  -0.0286   0.9458   1.0000
   0.500   0.0457   0.03124   0.02058  -0.0270   0.9554   1.0000
   0.600   0.0538   0.03151   0.02079  -0.0270   0.9518   1.0000
   0.700   0.0657   0.03190   0.02112  -0.0277   0.9481   1.0000
   1.000   0.0998   0.03309   0.02212  -0.0295   0.9364   1.0000
   0.750   0.0748   0.03219   0.02137  -0.0286   0.9458   1.0000
   0.850   0.0877   0.03264   0.02174  -0.0295   0.9420   1.0000
   0.950   0.0948   0.03291   0.02196  -0.0293   0.9383   1.0000
   1.250   0.1299   0.03417   0.02308  -0.0312   0.9259   1.0000
   1.000   0.0998   0.03309   0.02212  -0.0295   0.9364   1.0000
   1.100   0.1160   0.03363   0.02260  -0.0309   0.9319   1.0000
   1.200   0.1271   0.03404   0.02297  -0.0314   0.9277   1.0000
   1.500   0.1623   0.03534   0.02414  -0.0332   0.9148   1.0000
   1.250   0.1299   0.03417   0.02308  -0.0312   0.9259   1.0000
   1.350   0.1401   0.03455   0.02342  -0.0315   0.9217   1.0000
   1.450   0.1603   0.03522   0.02404  -0.0336   0.9167   1.0000
   1.750   0.1913   0.03643   0.02514  -0.0347   0.9036   1.0000
   1.500   0.1623   0.03534   0.02414  -0.0332   0.9148   1.0000
   1.600   0.1676   0.03561   0.02439  -0.0328   0.9107   1.0000
   1.700   0.1809   0.03608   0.02482  -0.0336   0.9059   1.0000
   2.000   0.2135   0.03738   0.02604  -0.0350   0.8919   1.0000
   1.750   0.1913   0.03643   0.02514  -0.0347   0.9036   1.0000
   1.850   0.1968   0.03674   0.02543  -0.0342   0.8991   1.0000
   1.950   0.2052   0.03711   0.02577  -0.0343   0.8945   1.0000
   2.250   0.2381   0.03844   0.02705  -0.0356   0.8796   1.0000
   2.000   0.2135   0.03738   0.02604  -0.0350   0.8919   1.0000
   2.100   0.2270   0.03790   0.02653  -0.0358   0.8870   1.0000
   0.000  -0.0172   0.02926   0.01901  -0.0229   0.9725   1.0000
  -0.250  -0.0489   0.02835   0.01836  -0.0207   0.9805   1.0000
  -0.150  -0.0379   0.02865   0.01857  -0.0213   0.9774   1.0000
  -0.050  -0.0250   0.02902   0.01884  -0.0222   0.9742   1.0000
   0.250   0.0117   0.03014   0.01968  -0.0245   0.9642   1.0000
   0.000  -0.0172   0.02926   0.01901  -0.0229   0.9725   1.0000
   0.100  -0.0023   0.02973   0.01938  -0.0241   0.9691   1.0000
   0.200   0.0062   0.02998   0.01955  -0.0242   0.9660   1.0000
   0.500   0.0457   0.03124   0.02058  -0.0270   0.9554   1.0000
   0.250   0.0117   0.03014   0.01968  -0.0245   0.9642   1.0000
   0.350   0.0249   0.03055   0.02001  -0.0254   0.9606   1.0000
   0.450   0.0431   0.03116   0.02052  -0.0273   0.9568   1.0000
   0.750   0.0748   0.03219   0.02137  -0.0286   0.9458   1.0000
   0.500   0.0457   0.03124   0.02058  -0.0270   0.9554   1.0000
   0.600   0.0538   0.03151   0.02079  -0.0270   0.9518   1.0000
   0.700   0.0657   0.03190   0.02112  -0.0277   0.9481   1.0000
   1.000   0.0998   0.03309   0.02212  -0.0295   0.9364   1.0000
   0.750   0.0748   0.03219   0.02137  -0.0286   0.9458   1.0000
   0.850   0.0877   0.03264   0.02174  -0.0295   0.9420   1.0000
   0.950   0.0948   0.03291   0.02196  -0.0293   0.9383   1.0000
   1.250   0.1299   0.03417   0.02308  -0.0312   0.9259   1.0000
   1.000   0.0998   0.03309   0.02212  -0.0295   0.9364   1.0000
   1.100   0.1160   0.03363   0.02260  -0.0309   0.9319   1.0000
   1.200   0.1271   0.03404   0.02297  -0.0314   0.9277   1.0000
   1.500   0.1623   0.03534   0.02414  -0.0332   0.9148   1.0000
   1.250   0.1299   0.03417   0.02308  -0.0312   0.9259   1.0000
   1.350   0.1401   0.03455   0.02342  -0.0315   0.9217   1.0000
   1.450   0.1603   0.03522   0.02404  -0.0336   0.9167   1.0000
   1.750   0.1913   0.03643   0.02514  -0.0347   0.9036   1.0000
   1.500   0.1623   0.03534   0.02414  -0.0332   0.9148   1.0000
   1.600   0.1676   0.03561   0.02439  -0.0328   0.9107   1.0000
   1.700   0.1809   0.03608   0.02482  -0.0336   0.9059   1.0000
   2.000   0.2135   0.03738   0.02604  -0.0350   0.8919   1.0000
   1.750   0.1913   0.03643   0.02514  -0.0347   0.9036   1.0000
   1.850   0.1968   0.03674   0.02543  -0.0342   0.8991   1.0000
   1.950   0.2052   0.03711   0.02577  -0.0343   0.8945   1.0000
   2.250   0.2381   0.03844   0.02705  -0.0356   0.8796   1.0000
   2.000   0.2135   0.03738   0.02604  -0.0350   0.8919   1.0000
   2.100   0.2270   0.03790   0.02653  -0.0358   0.8870   1.0000
   2.200   0.2315   0.03820   0.02682  -0.0352   0.8825   1.0000
   2.500   0.2634   0.03953   0.02811  -0.0363   0.8669   1.0000
   2.250   0.2381   0.03844   0.02705  -0.0356   0.8796   1.0000
   2.350   0.2576   0.03907   0.02766  -0.0374   0.8743   1.0000
   2.450   0.2586   0.03932   0.02790  -0.0362   0.8694   1.0000
   2.750   0.2892   0.04065   0.02921  -0.0370   0.8536   1.0000
   2.500   0.2634   0.03953   0.02811  -0.0363   0.8669   1.0000
   2.600   0.2864   0.04021   0.02879  -0.0386   0.8612   1.0000
   2.700   0.2852   0.04045   0.02902  -0.0371   0.8562   1.0000
   3.000   0.3146   0.04178   0.03032  -0.0377   0.8401   1.0000
   2.750   0.2892   0.04065   0.02921  -0.0370   0.8536   1.0000
   2.850   0.3091   0.04125   0.02981  -0.0388   0.8481   1.0000
   2.950   0.3112   0.04158   0.03014  -0.0378   0.8428   1.0000
   3.250   0.3396   0.04291   0.03146  -0.0382   0.8262   1.0000
   3.000   0.3146   0.04178   0.03033  -0.0377   0.8401   1.0000
   3.100   0.3331   0.04234   0.03090  -0.0391   0.8346   1.0000
   3.200   0.3366   0.04271   0.03126  -0.0384   0.8289   1.0000
   3.500   0.3646   0.04404   0.03261  -0.0386   0.8118   1.0000
   3.250   0.3396   0.04291   0.03146  -0.0382   0.8262   1.0000
   3.350   0.3606   0.04346   0.03203  -0.0399   0.8202   1.0000
   3.450   0.3612   0.04383   0.03240  -0.0387   0.8146   1.0000
   3.750   0.3893   0.04517   0.03379  -0.0390   0.7972   1.0000
   3.500   0.3646   0.04404   0.03261  -0.0386   0.8118   1.0000
   3.600   0.3871   0.04459   0.03318  -0.0405   0.8058   1.0000
   3.700   0.3852   0.04495   0.03355  -0.0390   0.8002   1.0000
   4.000   0.4141   0.04629   0.03495  -0.0393   0.7824   1.0000
   3.750   0.3893   0.04517   0.03379  -0.0390   0.7972   1.0000
   3.850   0.4142   0.04571   0.03436  -0.0411   0.7914   1.0000
   3.950   0.4089   0.04607   0.03472  -0.0392   0.7853   1.0000
   4.250   0.4382   0.04742   0.03613  -0.0394   0.7677   1.0000
   4.000   0.4141   0.04629   0.03495  -0.0393   0.7824   1.0000
   4.100   0.4363   0.04679   0.03549  -0.0409   0.7767   1.0000
   4.200   0.4319   0.04721   0.03590  -0.0392   0.7706   1.0000
   4.500   0.4638   0.04853   0.03730  -0.0397   0.7525   1.0000
   4.250   0.4382   0.04742   0.03613  -0.0394   0.7677   1.0000
   4.350   0.4563   0.04788   0.03663  -0.0405   0.7618   1.0000
   4.450   0.4556   0.04831   0.03707  -0.0393   0.7554   1.0000
   4.750   0.4904   0.04960   0.03850  -0.0399   0.7374   1.0000
   4.500   0.4638   0.04853   0.03730  -0.0397   0.7525   1.0000
   4.600   0.4755   0.04898   0.03778  -0.0399   0.7466   1.0000
   4.700   0.4793   0.04943   0.03829  -0.0393   0.7403   1.0000
   5.000   0.5173   0.05065   0.03963  -0.0402   0.7224   1.0000
   4.750   0.4904   0.04960   0.03850  -0.0399   0.7374   1.0000
   4.850   0.4951   0.05009   0.03900  -0.0394   0.7313   1.0000
   4.950   0.5042   0.05051   0.03945  -0.0393   0.7250   1.0000
   5.250   0.5464   0.05162   0.04071  -0.0405   0.7071   1.0000
   5.000   0.5173   0.05065   0.03963  -0.0402   0.7224   1.0000
   5.100   0.5154   0.05120   0.04019  -0.0389   0.7158   1.0000
   5.200   0.5302   0.05155   0.04060  -0.0394   0.7097   1.0000
   5.500   0.5596   0.05279   0.04197  -0.0391   0.6914   1.0000
   5.250   0.5464   0.05162   0.04071  -0.0405   0.7071   1.0000
   5.350   0.5364   0.05231   0.04140  -0.0385   0.7004   1.0000
   5.450   0.5574   0.05253   0.04169  -0.0394   0.6945   1.0000
   5.750   0.5754   0.05396   0.04323  -0.0381   0.6757   1.0000
   5.500   0.5596   0.05279   0.04197  -0.0391   0.6914   1.0000
   5.600   0.5589   0.05337   0.04256  -0.0381   0.6848   1.0000
   5.700   0.5872   0.05340   0.04270  -0.0396   0.6793   1.0000
   6.000   0.5932   0.05508   0.04450  -0.0372   0.6598   1.0000
   5.750   0.5754   0.05396   0.04323  -0.0381   0.6757   1.0000
   5.850   0.5828   0.05439   0.04374  -0.0378   0.6693   1.0000
   5.950   0.5981   0.05464   0.04407  -0.0381   0.6633   1.0000
   6.250   0.6139   0.05611   0.04566  -0.0365   0.6437   1.0000
   6.000   0.5932   0.05508   0.04450  -0.0372   0.6598   1.0000
   6.100   0.6099   0.05525   0.04475  -0.0376   0.6536   1.0000
   6.200   0.6125   0.05585   0.04538  -0.0369   0.6472   1.0000
   6.500   0.6370   0.05705   0.04674  -0.0359   0.6279   1.0000
   6.250   0.6139   0.05611   0.04566  -0.0365   0.6437   1.0000
   6.350   0.6389   0.05599   0.04566  -0.0374   0.6382   1.0000
   6.450   0.6306   0.05693   0.04660  -0.0360   0.6311   1.0000
   6.750   0.6651   0.05769   0.04757  -0.0355   0.6119   1.0000
   6.500   0.6370   0.05705   0.04674  -0.0359   0.6279   1.0000
   6.600   0.6569   0.05701   0.04681  -0.0363   0.6220   1.0000
   6.700   0.6518   0.05791   0.04772  -0.0352   0.6151   1.0000
   7.000   0.6987   0.05793   0.04808  -0.0352   0.5961   1.0000
   6.750   0.6651   0.05769   0.04757  -0.0355   0.6119   1.0000
   6.850   0.6673   0.05833   0.04825  -0.0348   0.6054   1.0000
   6.950   0.6788   0.05851   0.04855  -0.0346   0.5988   1.0000
   7.250   0.7064   0.05936   0.04962  -0.0334   0.5790   1.0000
   7.000   0.6987   0.05793   0.04808  -0.0352   0.5961   1.0000
   7.100   0.6850   0.05934   0.04945  -0.0337   0.5886   1.0000
   7.200   0.7128   0.05863   0.04891  -0.0341   0.5827   1.0000
   7.500   0.7199   0.06048   0.05090  -0.0319   0.5615   1.0000
   7.250   0.7064   0.05936   0.04962  -0.0334   0.5790   1.0000
   7.350   0.7105   0.05987   0.05019  -0.0328   0.5719   1.0000
   7.450   0.7265   0.05974   0.05017  -0.0326   0.5656   1.0000
   7.750   0.7459   0.06080   0.05144  -0.0308   0.5444   1.0000
   7.500   0.7199   0.06048   0.05090  -0.0319   0.5615   1.0000
   7.600   0.7483   0.05947   0.05007  -0.0321   0.5552   1.0000
   7.700   0.7375   0.06098   0.05155  -0.0310   0.5478   1.0000
   8.000   0.7984   0.05878   0.04986  -0.0298   0.5269   1.0000
   7.750   0.7459   0.06080   0.05144  -0.0308   0.5444   1.0000
   7.850   0.7621   0.06044   0.05120  -0.0304   0.5375   1.0000
   7.950   0.7687   0.06072   0.05156  -0.0297   0.5299   1.0000
   8.250   0.7965   0.06089   0.05206  -0.0277   0.5078   1.0000
   8.000   0.7984   0.05878   0.04986  -0.0298   0.5269   1.0000
   8.100   0.7765   0.06135   0.05229  -0.0287   0.5190   1.0000
   8.200   0.8223   0.05820   0.04951  -0.0283   0.5119   1.0000
   8.500   0.8447   0.05824   0.04983  -0.0255   0.4878   1.0000
   8.250   0.7965   0.06089   0.05206  -0.0277   0.5078   1.0000
   8.350   0.8402   0.05758   0.04908  -0.0269   0.5000   1.0000
   8.450   0.8193   0.06040   0.05180  -0.0261   0.4921   1.0000
   8.750   1.0649   0.03501   0.02786  -0.0221   0.4265   1.0000
   8.500   0.8447   0.05824   0.04983  -0.0255   0.4878   1.0000
   8.600   0.8488   0.05858   0.05025  -0.0246   0.4797   1.0000
   8.700   1.0523   0.03632   0.02919  -0.0229   0.4396   1.0000
   9.000   1.0812   0.03353   0.02615  -0.0173   0.3710   1.0000
   8.750   1.0649   0.03501   0.02786  -0.0221   0.4265   1.0000
   8.850   1.0739   0.03414   0.02693  -0.0202   0.4046   1.0000
   8.950   1.0787   0.03374   0.02644  -0.0183   0.3829   1.0000
   9.250   1.0775   0.03407   0.02633  -0.0119   0.3178   1.0000
   9.000   1.0812   0.03353   0.02615  -0.0173   0.3710   1.0000
   9.100   1.0797   0.03377   0.02632  -0.0152   0.3512   1.0000
   9.200   1.0787   0.03393   0.02629  -0.0130   0.3289   1.0000
   9.500   1.0642   0.03567   0.02758  -0.0065   0.2700   1.0000
   9.250   1.0775   0.03407   0.02633  -0.0119   0.3178   1.0000
   9.350   1.0720   0.03469   0.02685  -0.0097   0.2991   1.0000
   9.450   1.0672   0.03531   0.02730  -0.0076   0.2795   1.0000
   9.750   1.0486   0.03766   0.02911  -0.0013   0.2271   1.0000
   9.500   1.0642   0.03567   0.02758  -0.0065   0.2701   1.0000
   9.600   1.0578   0.03640   0.02812  -0.0043   0.2522   1.0000
   9.700   1.0527   0.03716   0.02861  -0.0023   0.2345   1.0000
  10.000   1.0382   0.04017   0.03115   0.0028   0.1860   1.0000
   9.750   1.0486   0.03766   0.02911  -0.0013   0.2271   1.0000
   9.850   1.0432   0.03858   0.02984   0.0005   0.2107   1.0000
   9.950   1.0406   0.03958   0.03053   0.0020   0.1933   1.0000
  10.250   1.0376   0.04282   0.03332   0.0057   0.1508   1.0000
  10.000   1.0382   0.04017   0.03115   0.0028   0.1860   1.0000
  10.100   1.0369   0.04125   0.03206   0.0040   0.1708   1.0000
  10.200   1.0372   0.04231   0.03299   0.0052   0.1575   1.0000
  10.500   1.0559   0.04587   0.03621   0.0076   0.1211   1.0000
  10.250   1.0376   0.04282   0.03332   0.0057   0.1508   1.0000
  10.350   1.0418   0.04394   0.03428   0.0066   0.1380   1.0000
  10.450   1.0562   0.04528   0.03551   0.0070   0.1245   1.0000
  10.750   1.0786   0.04882   0.03900   0.0085   0.1013   1.0000
  10.500   1.0559   0.04587   0.03621   0.0076   0.1211   1.0000
  10.600   1.0669   0.04711   0.03728   0.0078   0.1111   1.0000
  10.700   1.0689   0.04817   0.03850   0.0087   0.1060   1.0000
  11.000   1.1036   0.05262   0.04314   0.0093   0.0899   1.0000
  10.750   1.0888   0.04934   0.03950   0.0078   0.0991   1.0000
  10.850   1.0910   0.05068   0.04112   0.0088   0.0959   1.0000
  10.950   1.0994   0.05201   0.04258   0.0092   0.0927   1.0000
  11.250   1.1082   0.05613   0.04692   0.0112   0.0834   1.0000
  11.000   1.1121   0.05299   0.04336   0.0084   0.0879   1.0000
  11.100   1.1148   0.05446   0.04496   0.0092   0.0858   1.0000
  11.200   1.1113   0.05561   0.04632   0.0105   0.0844   1.0000
  11.500   1.1092   0.05946   0.05060   0.0132   0.0804   1.0000
  11.250   1.1082   0.05613   0.04692   0.0112   0.0834   1.0000
  11.350   1.1081   0.05743   0.04838   0.0121   0.0820   1.0000
  11.450   1.1086   0.05880   0.04988   0.0129   0.0808   1.0000
  11.750   1.1122   0.06332   0.05472   0.0148   0.0779   1.0000
  11.500   1.1092   0.05946   0.05060   0.0132   0.0804   1.0000
  11.600   1.1101   0.06099   0.05226   0.0139   0.0793   1.0000
  11.700   1.1112   0.06257   0.05394   0.0146   0.0784   1.0000
  12.250   1.1127   0.07217   0.06389   0.0172   0.0744   1.0000
  12.100   1.1201   0.06996   0.06151   0.0161   0.0744   1.0000
  12.200   1.1131   0.07129   0.06296   0.0170   0.0743   1.0000
  12.500   1.0962   0.07609   0.06808   0.0186   0.0744   1.0000
  12.250   1.1127   0.07217   0.06389   0.0172   0.0744   1.0000
  12.350   1.1047   0.07369   0.06552   0.0179   0.0743   1.0000
  12.450   1.0959   0.07518   0.06713   0.0185   0.0742   1.0000
  12.750   1.0780   0.08030   0.07252   0.0195   0.0744   1.0000
  12.500   1.0962   0.07609   0.06808   0.0186   0.0744   1.0000
  12.600   1.0856   0.07762   0.06972   0.0191   0.0742   1.0000
  12.700   1.0797   0.07941   0.07159   0.0194   0.0743   1.0000
  13.000   1.0593   0.08499   0.07741   0.0196   0.0746   1.0000
  12.750   1.0780   0.08030   0.07252   0.0195   0.0744   1.0000
  12.850   1.0714   0.08212   0.07442   0.0196   0.0745   1.0000
  13.250   0.9801   0.09271   0.08572   0.0153   0.0818   1.0000
  13.000   1.0103   0.08614   0.07896   0.0177   0.0803   1.0000
  13.100   0.9984   0.08865   0.08156   0.0168   0.0810   1.0000
  13.200   0.9862   0.09134   0.08432   0.0158   0.0816   1.0000
  13.500   0.9531   0.09985   0.09298   0.0121   0.0835   1.0000
  13.250   0.9801   0.09271   0.08572   0.0153   0.0818   1.0000
  13.350   0.9690   0.09556   0.08861   0.0141   0.0826   1.0000
  13.450   0.9572   0.09855   0.09166   0.0127   0.0832   1.0000
  13.750   0.9280   0.10770   0.10089   0.0082   0.0849   1.0000
  13.500   0.9531   0.09985   0.09298   0.0121   0.0835   1.0000
  13.600   0.9426   0.10294   0.09610   0.0106   0.0841   1.0000
  13.700   0.9333   0.10602   0.09920   0.0091   0.0847   1.0000
  14.000   0.9113   0.11520   0.10841   0.0049   0.0862   1.0000
  13.750   0.9280   0.10770   0.10089   0.0082   0.0850   1.0000
  13.850   0.9206   0.11074   0.10394   0.0068   0.0855   1.0000
  13.950   0.9123   0.11400   0.10721   0.0052   0.0859   1.0000
  14.000   0.9113   0.11520   0.10841   0.0049   0.0862   1.0000
  14.100   0.9043   0.11846   0.11167   0.0033   0.0866   1.0000
  14.200   0.9008   0.12128   0.11449   0.0023   0.0869   1.0000
   0.000  -0.0172   0.02926   0.01901  -0.0229   0.9725   1.0000
   0.250   0.0117   0.03014   0.01968  -0.0245   0.9642   1.0000
   0.500   0.0457   0.03124   0.02058  -0.0270   0.9554   1.0000
   0.750   0.0748   0.03219   0.02137  -0.0286   0.9458   1.0000
   1.000   0.0998   0.03309   0.02212  -0.0295   0.9364   1.0000
   1.250   0.1299   0.03417   0.02308  -0.0312   0.9259   1.0000
   1.500   0.1623   0.03534   0.02414  -0.0332   0.9148   1.0000
   1.750   0.1913   0.03643   0.02514  -0.0347   0.9036   1.0000
   2.000   0.2135   0.03738   0.02604  -0.0350   0.8919   1.0000
   2.250   0.2381   0.03844   0.02705  -0.0356   0.8796   1.0000
   2.500   0.2634   0.03953   0.02811  -0.0363   0.8669   1.0000
   2.750   0.2892   0.04065   0.02921  -0.0370   0.8536   1.0000
   3.000   0.3146   0.04178   0.03033  -0.0377   0.8401   1.0000
   3.250   0.3396   0.04291   0.03146  -0.0382   0.8262   1.0000
   3.500   0.3646   0.04404   0.03261  -0.0386   0.8118   1.0000
   3.750   0.3893   0.04517   0.03379  -0.0390   0.7972   1.0000
   4.000   0.4141   0.04629   0.03495  -0.0393   0.7824   1.0000
   4.250   0.4382   0.04742   0.03613  -0.0394   0.7677   1.0000
   4.500   0.4638   0.04853   0.03730  -0.0397   0.7525   1.0000
   4.750   0.4904   0.04960   0.03850  -0.0399   0.7374   1.0000
   5.000   0.5173   0.05065   0.03963  -0.0402   0.7224   1.0000
   5.250   0.5464   0.05162   0.04071  -0.0405   0.7071   1.0000
   5.500   0.5596   0.05279   0.04197  -0.0391   0.6914   1.0000
   5.750   0.5754   0.05396   0.04323  -0.0381   0.6757   1.0000
   6.000   0.5932   0.05508   0.04450  -0.0372   0.6598   1.0000
   6.250   0.6139   0.05611   0.04566  -0.0365   0.6437   1.0000
   6.500   0.6370   0.05705   0.04674  -0.0359   0.6279   1.0000
   6.750   0.6651   0.05769   0.04757  -0.0355   0.6119   1.0000
   7.000   0.6987   0.05793   0.04808  -0.0352   0.5961   1.0000
   7.250   0.7064   0.05936   0.04962  -0.0334   0.5790   1.0000
   7.500   0.7199   0.06048   0.05090  -0.0319   0.5615   1.0000
   7.750   0.7459   0.06080   0.05144  -0.0308   0.5444   1.0000
   8.000   0.7984   0.05878   0.04986  -0.0298   0.5269   1.0000
   8.250   0.7965   0.06089   0.05206  -0.0277   0.5078   1.0000
   8.500   0.8447   0.05824   0.04983  -0.0255   0.4878   1.0000
   8.750   1.0649   0.03501   0.02786  -0.0221   0.4265   1.0000
   9.000   1.0812   0.03353   0.02615  -0.0173   0.3710   1.0000
   9.250   1.0776   0.03407   0.02632  -0.0119   0.3177   1.0000
   9.500   1.0642   0.03567   0.02758  -0.0065   0.2700   1.0000
   9.750   1.0486   0.03766   0.02911  -0.0013   0.2271   1.0000
  10.000   1.0382   0.04017   0.03115   0.0028   0.1860   1.0000
  10.250   1.0376   0.04282   0.03332   0.0057   0.1508   1.0000
  10.500   1.0559   0.04587   0.03621   0.0076   0.1211   1.0000
  10.750   1.0786   0.04882   0.03900   0.0085   0.1013   1.0000
  11.000   1.1036   0.05262   0.04314   0.0093   0.0899   1.0000
  11.250   1.1082   0.05613   0.04692   0.0112   0.0834   1.0000
  11.500   1.1092   0.05946   0.05060   0.0132   0.0804   1.0000
  11.750   1.1122   0.06331   0.05472   0.0148   0.0779   1.0000
  11.750   1.1122   0.06332   0.05472   0.0148   0.0779   1.0000
  11.850   1.1093   0.06482   0.05636   0.0156   0.0779   1.0000
  11.950   1.1307   0.06804   0.05940   0.0146   0.0746   1.0000
  12.250   1.1127   0.07217   0.06389   0.0172   0.0744   1.0000
  12.500   1.0962   0.07609   0.06808   0.0186   0.0744   1.0000
  12.750   1.0780   0.08030   0.07252   0.0195   0.0744   1.0000
  13.000   1.0593   0.08499   0.07741   0.0196   0.0746   1.0000
  13.250   0.9801   0.09271   0.08571   0.0153   0.0818   1.0000
  13.500   0.9531   0.09985   0.09298   0.0121   0.0835   1.0000
  13.750   0.9280   0.10770   0.10089   0.0082   0.0850   1.0000
  14.000   0.9113   0.11520   0.10841   0.0049   0.0862   1.0000
  14.000   0.9113   0.11520   0.10841   0.0049   0.0862   1.0000
  14.100   0.9043   0.11846   0.11167   0.0033   0.0866   1.0000
  14.200   0.9008   0.12128   0.11449   0.0023   0.0869   1.0000
  14.750   0.8091   0.15936   0.15216  -0.0227   0.1239   1.0000
  14.750   0.8091   0.15936   0.15216  -0.0227   0.1239   1.0000
  14.850   0.8142   0.16151   0.15434  -0.0227   0.1251   1.0000
  15.500   0.5828   0.16716   0.16039  -0.0275   0.2430   1.0000
  15.750   0.5995   0.17275   0.16605  -0.0275   0.2336   1.0000
  16.000   0.5867   0.17307   0.16635  -0.0293   0.2288   1.0000
  16.000   0.5867   0.17307   0.16635  -0.0293   0.2288   1.0000
  16.100   0.5880   0.17421   0.16750  -0.0296   0.2256   1.0000
  16.200   0.6073   0.17902   0.17240  -0.0287   0.2202   1.0000
  16.500   0.5915   0.17895   0.17227  -0.0311   0.2142   1.0000
  16.750   0.6025   0.18345   0.17686  -0.0313   0.2054   1.0000
  17.000   0.5977   0.18484   0.17825  -0.0329   0.1989   1.0000
  17.250   0.6171   0.19168   0.18513  -0.0327   0.1928   1.0000
  17.500   0.6042   0.19127   0.18471  -0.0350   0.1893   1.0000
  17.750   0.6248   0.19817   0.19165  -0.0345   0.1793   1.0000
  18.000   0.6116   0.19747   0.19094  -0.0370   0.1765   1.0000
  18.250   0.6177   0.20063   0.19413  -0.0377   0.1682   1.0000
  18.500   0.6251   0.20528   0.19879  -0.0385   0.1651   1.0000
  18.750   0.6197   0.20626   0.19977  -0.0407   0.1605   1.0000
  19.000   0.6272   0.20992   0.20346  -0.0413   0.1548   1.0000
  19.250   0.6351   0.21470   0.20825  -0.0421   0.1517   1.0000
  19.500   0.6300   0.21557   0.20912  -0.0443   0.1469   1.0000
  19.750   0.6436   0.22085   0.21444  -0.0442   0.1399   1.0000
  20.000   0.6422   0.22321   0.21679  -0.0461   0.1378   1.0000
   0.000  -0.0172   0.02926   0.01901  -0.0229   0.9725   1.0000
  -0.250  -0.0489   0.02835   0.01836  -0.0207   0.9805   1.0000
  -0.500  -0.0832   0.02737   0.01768  -0.0181   0.9881   1.0000
  -0.750  -0.1159   0.02655   0.01717  -0.0158   0.9953   1.0000
  -1.000  -0.1449   0.02582   0.01682  -0.0141   1.0000   1.0000
  -1.250  -0.1594   0.02546   0.01677  -0.0154   1.0000   1.0000
  -1.500  -0.1737   0.02513   0.01680  -0.0168   1.0000   1.0000
  -1.750  -0.1877   0.02484   0.01691  -0.0183   1.0000   1.0000
  -2.000  -0.2014   0.02459   0.01713  -0.0198   1.0000   1.0000
  -2.250  -0.2153   0.02438   0.01753  -0.0213   1.0000   1.0000
  -2.500  -0.3667   0.02946   0.01915  -0.0021   1.0000   0.1884
  -2.750  -0.3898   0.03084   0.02066  -0.0032   1.0000   0.1534
  -3.000  -0.4121   0.03248   0.02244  -0.0044   1.0000   0.1351
  -3.250  -0.4320   0.03412   0.02424  -0.0057   1.0000   0.1196
  -3.500  -0.4530   0.03637   0.02701  -0.0072   1.0000   0.1150
  -3.750  -0.4708   0.03821   0.02915  -0.0087   1.0000   0.1063
  -4.000  -0.4880   0.04092   0.03227  -0.0103   1.0000   0.1031
  -4.250  -0.5043   0.04394   0.03570  -0.0119   1.0000   0.1038
  -4.500  -0.5179   0.04780   0.04066  -0.0140   1.0000   0.1119
  -4.750  -0.5298   0.05137   0.04447  -0.0155   1.0000   0.1165
  -5.000  -0.5385   0.05612   0.04983  -0.0167   1.0000   0.1300
  -6.250  -0.4657   0.08254   0.07769   0.0004   1.0000   0.3523
  -6.500  -0.4535   0.08427   0.07934  -0.0034   1.0000   0.3412
  -6.750  -0.4483   0.08663   0.08164  -0.0072   1.0000   0.3290
  -7.000  -0.4030   0.08542   0.08025  -0.0128   1.0000   0.3242
  -7.250  -0.4017   0.08786   0.08263  -0.0163   1.0000   0.3147
  -7.500  -0.3673   0.08729   0.08187  -0.0209   1.0000   0.3064
  -7.750  -0.3569   0.08915   0.08359  -0.0227   1.0000   0.2957
  -8.000  -0.3626   0.09232   0.08669  -0.0233   1.0000   0.2851
  -8.250  -0.3759   0.09623   0.09056  -0.0239   1.0000   0.2726
  -8.500  -0.3815   0.09962   0.09392  -0.0239   1.0000   0.2586
  -8.750  -0.3887   0.10313   0.09736  -0.0238   1.0000   0.2446
  -9.000  -0.3730   0.10433   0.09841  -0.0210   1.0000   0.2350
  -9.250  -0.3752   0.10759   0.10159  -0.0198   1.0000   0.2244
  -9.500  -0.3894   0.11189   0.10586  -0.0197   1.0000   0.2149
  -9.750  -0.3902   0.11444   0.10834  -0.0182   1.0000   0.2055
 -10.000  -0.3925   0.11791   0.11173  -0.0167   1.0000   0.1986
 -10.250  -0.4219   0.12461   0.11847  -0.0182   1.0000   0.1881
 -10.500  -0.4026   0.12480   0.11851  -0.0141   1.0000   0.1845
 -10.750  -0.4133   0.12867   0.12237  -0.0134   1.0000   0.1762
 -11.000  -0.4179   0.13253   0.12616  -0.0119   1.0000   0.1722
 -11.250  -0.4173   0.13486   0.12844  -0.0098   1.0000   0.1655
 -11.500  -0.4422   0.14181   0.13540  -0.0105   1.0000   0.1596
 -11.750  -0.4300   0.14221   0.13570  -0.0069   1.0000   0.1563
 -12.000  -0.4362   0.14543   0.13889  -0.0055   1.0000   0.1501
 -12.250  -0.4599   0.15258   0.14606  -0.0060   1.0000   0.1455
 -12.500  -0.4496   0.15279   0.14618  -0.0024   1.0000   0.1430
 -12.750  -0.4537   0.15559   0.14895  -0.0006   1.0000   0.1374
 -13.000  -0.4854   0.16492   0.15835  -0.0020   1.0000   0.1318
 -13.250  -0.4745   0.16442   0.15777   0.0017   1.0000   0.1306
 -13.500  -0.4739   0.16590   0.15920   0.0044   1.0000   0.1270
 -13.750  -0.4824   0.16928   0.16257   0.0058   1.0000   0.1222
 -14.000  -0.5071   0.17786   0.17116   0.0054   1.0000   0.1177
 -14.250  -0.5006   0.17739   0.17062   0.0088   1.0000   0.1163
 -14.500  -0.5033   0.17918   0.17237   0.0113   1.0000   0.1127
 -14.750  -0.5140   0.18303   0.17621   0.0125   1.0000   0.1072
 -15.000  -0.5389   0.19256   0.18577   0.0121   1.0000   0.1040
 -15.250  -0.5339   0.19156   0.18469   0.0156   1.0000   0.1031
 -15.500  -0.5361   0.19262   0.18571   0.0185   1.0000   0.1006
 -15.750  -0.5434   0.19543   0.18850   0.0205   1.0000   0.0970
 -16.000  -0.5540   0.19915   0.19222   0.0220   1.0000   0.0937
 -16.250  -0.5847   0.21247   0.20559   0.0207   1.0000   0.0905
 -16.500  -0.5817   0.21107   0.20412   0.0240   1.0000   0.0901
 -16.750  -0.5817   0.21048   0.20348   0.0274   1.0000   0.0891
 -17.000  -0.5869   0.21196   0.20493   0.0302   1.0000   0.0869
 -17.250  -0.5949   0.21473   0.20774   0.0324   1.0000   0.0841
 -17.500  -0.6044   0.21797   0.21097   0.0343   1.0000   0.0816
 -17.750  -0.6158   0.22210   0.21510   0.0356   1.0000   0.0792
 -18.000  -0.6425   0.23642   0.22946   0.0347   1.0000   0.0769
 -18.250  -0.6420   0.23454   0.22752   0.0380   1.0000   0.0766
 -18.500  -0.6443   0.23371   0.22666   0.0414   1.0000   0.0760
 -18.750  -0.6498   0.23449   0.22741   0.0444   1.0000   0.0747
 -19.000  -0.6577   0.23676   0.22967   0.0469   1.0000   0.0726
 -19.250  -0.6666   0.23959   0.23248   0.0491   1.0000   0.0706
 -19.500  -0.6759   0.24264   0.23553   0.0512   1.0000   0.0687
 -19.750  -0.6858   0.24606   0.23895   0.0530   1.0000   0.0669
 -20.000  -0.6975   0.25089   0.24379   0.0543   1.0000   0.0651
