  
       XFOIL         Version 6.99
  
 Calculated polar for: Dormoy                                          
  
 1 1 Reynolds number fixed          Mach number fixed         
  
 xtrf =   1.000 (top)        1.000 (bottom)  
 Mach =   0.000     Re =     0.050 e 6     Ncrit =   9.000
  
   alpha    CL        CD       CDp       CM     Top_Xtr  Bot_Xtr
  ------ -------- --------- --------- -------- -------- --------
   0.000   0.2517   0.02563   0.01490  -0.0416   0.9287   1.0000
   0.250   0.2955   0.02618   0.01543  -0.0453   0.9076   1.0000
   0.500   0.3545   0.02656   0.01585  -0.0511   0.8876   1.0000
   0.750   0.4043   0.02671   0.01606  -0.0549   0.8635   1.0000
   1.000   0.4617   0.02652   0.01599  -0.0593   0.8388   1.0000
   1.250   0.5167   0.02608   0.01569  -0.0627   0.8144   1.0000
   1.500   0.5665   0.02555   0.01535  -0.0647   0.7902   1.0000
   1.750   0.6053   0.02500   0.01490  -0.0644   0.7621   1.0000
   2.000   0.6377   0.02441   0.01439  -0.0629   0.7317   1.0000
   2.250   0.6675   0.02386   0.01391  -0.0611   0.7024   1.0000
   2.500   0.6956   0.02334   0.01352  -0.0592   0.6731   1.0000
   2.750   0.7217   0.02306   0.01327  -0.0573   0.6450   1.0000
   3.000   0.7464   0.02301   0.01327  -0.0556   0.6179   1.0000
   3.250   0.7702   0.02323   0.01356  -0.0542   0.5927   1.0000
   3.500   0.7945   0.02358   0.01409  -0.0530   0.5698   1.0000
   3.750   0.8181   0.02380   0.01439  -0.0515   0.5449   1.0000
   4.000   0.8367   0.02353   0.01402  -0.0485   0.5072   1.0000
   4.250   0.8570   0.02385   0.01443  -0.0466   0.4801   1.0000
   4.500   0.8748   0.02412   0.01481  -0.0444   0.4503   1.0000
   4.750   0.8816   0.02413   0.01460  -0.0401   0.3973   1.0000
   5.000   0.8910   0.02458   0.01502  -0.0367   0.3499   1.0000
   5.250   0.8975   0.02532   0.01554  -0.0328   0.2760   1.0000
   5.500   0.9032   0.02698   0.01652  -0.0295   0.1586   1.0000
   5.750   0.9106   0.02936   0.01824  -0.0270   0.0947   1.0000
   6.000   0.9182   0.03155   0.02034  -0.0245   0.0860   1.0000
   6.250   0.9234   0.03376   0.02258  -0.0218   0.0806   1.0000
   6.500   0.9300   0.03589   0.02484  -0.0192   0.0753   1.0000
   6.750   0.9433   0.03864   0.02752  -0.0171   0.0707   1.0000
   7.000   0.9801   0.04073   0.02976  -0.0168   0.0694   1.0000
   7.250   1.0275   0.04381   0.03306  -0.0177   0.0691   1.0000
   7.500   1.0697   0.04797   0.03743  -0.0186   0.0703   1.0000
   7.750   1.0896   0.05009   0.04011  -0.0168   0.0721   1.0000
   8.000   1.0978   0.05271   0.04351  -0.0139   0.0750   1.0000
   8.250   1.1054   0.05654   0.04804  -0.0117   0.0781   1.0000
   8.500   1.1138   0.06101   0.05288  -0.0101   0.0807   1.0000
   8.750   1.1261   0.06603   0.05814  -0.0092   0.0827   1.0000
   9.000   1.0952   0.06839   0.06120  -0.0050   0.0851   1.0000
   9.250   1.0682   0.07212   0.06526  -0.0021   0.0864   1.0000
   9.500   1.0414   0.07629   0.06965  -0.0007   0.0873   1.0000
   9.750   1.0147   0.08110   0.07464  -0.0013   0.0884   1.0000
  10.000   0.9856   0.08700   0.08055  -0.0036   0.0890   1.0000
  10.250   0.9552   0.09394   0.08758  -0.0077   0.0890   1.0000
  10.500   0.9240   0.10255   0.09622  -0.0136   0.0891   1.0000
  10.750   0.8975   0.11260   0.10622  -0.0201   0.0907   1.0000
  11.000   0.8984   0.11854   0.11218  -0.0216   0.0941   1.0000
  11.250   0.8565   0.13335   0.12678  -0.0328   0.0978   1.0000
  11.500   0.8572   0.13998   0.13339  -0.0348   0.1038   1.0000
  11.750   0.8371   0.14968   0.14295  -0.0415   0.1110   1.0000
  12.000   0.8310   0.15795   0.15116  -0.0457   0.1245   1.0000
  12.250   0.8101   0.17145   0.16458  -0.0561   0.1987   1.0000
  12.500   0.8098   0.17623   0.16933  -0.0586   0.2038   1.0000
  12.750   0.8298   0.18343   0.17659  -0.0591   0.2085   1.0000
  13.000   0.8337   0.18792   0.18108  -0.0608   0.2084   1.0000
  13.000   0.8337   0.18792   0.18108  -0.0608   0.2084   1.0000
  13.100   0.8362   0.18992   0.18307  -0.0615   0.2084   1.0000
  13.200   0.8391   0.19201   0.18516  -0.0621   0.2083   1.0000
  13.500   0.8304   0.19416   0.18722  -0.0654   0.2064   1.0000
  13.750   0.8309   0.19710   0.19014  -0.0677   0.2038   1.0000
  14.000   0.8360   0.20089   0.19391  -0.0694   0.2014   1.0000
  14.250   0.8436   0.20495   0.19797  -0.0709   0.1991   1.0000
  14.500   0.8552   0.20993   0.20298  -0.0718   0.1967   1.0000
  14.750   0.8575   0.21296   0.20596  -0.0739   0.1927   1.0000
  15.000   0.8664   0.21652   0.20954  -0.0750   0.1844   1.0000
  15.250   0.8724   0.22032   0.21331  -0.0767   0.1800   1.0000
  15.500   0.8781   0.22291   0.21589  -0.0783   0.1722   1.0000
  15.750   0.8887   0.22799   0.22096  -0.0793   0.1673   1.0000
  16.000   0.8912   0.22959   0.22255  -0.0817   0.1598   1.0000
  16.250   0.9051   0.23559   0.22864  -0.0820   0.1542   1.0000
  16.500   0.9049   0.23625   0.22926  -0.0850   0.1478   1.0000
  16.750   0.9270   0.24538   0.23846  -0.0840   0.1414   1.0000
  17.000   0.9204   0.24345   0.23645  -0.0883   0.1383   1.0000
  17.250   0.9284   0.24653   0.23954  -0.0899   0.1322   1.0000
  17.500   0.9456   0.25450   0.24755  -0.0896   0.1282   1.0000
  17.750   0.9423   0.25329   0.24628  -0.0937   0.1249   1.0000
  18.000   0.9509   0.25651   0.24951  -0.0953   0.1192   1.0000
  18.250   0.9652   0.26338   0.25640  -0.0955   0.1158   1.0000
  18.500   0.9645   0.26289   0.25586  -0.0994   0.1123   1.0000
  18.750   0.9732   0.26613   0.25912  -0.1009   0.1074   1.0000
  19.000   0.9864   0.27263   0.26564  -0.1013   0.1043   1.0000
  19.250   0.9870   0.27245   0.26541  -0.1051   0.1012   1.0000
  19.500   0.9954   0.27564   0.26862  -0.1068   0.0965   1.0000
  19.750   1.0099   0.28307   0.27607  -0.1068   0.0935   1.0000
  20.000   1.0104   0.28238   0.27534  -0.1107   0.0917   1.0000
   0.000   0.2517   0.02563   0.01490  -0.0416   0.9287   1.0000
  -0.250   0.1963   0.02485   0.01421  -0.0356   0.9470   1.0000
  -0.500   0.1459   0.02402   0.01353  -0.0302   0.9659   1.0000
  -0.750   0.0933   0.02303   0.01274  -0.0242   0.9835   1.0000
  -1.000   0.0370   0.02183   0.01182  -0.0172   1.0000   1.0000
  -1.250   0.0201   0.02127   0.01152  -0.0177   1.0000   1.0000
  -1.500   0.0030   0.02075   0.01126  -0.0183   1.0000   1.0000
  -1.750  -0.0143   0.02028   0.01107  -0.0190   1.0000   1.0000
  -2.000  -0.0316   0.01985   0.01098  -0.0198   1.0000   1.0000
  -2.250  -0.0492   0.01947   0.01101  -0.0208   1.0000   1.0000
  -2.500  -0.0669   0.01912   0.01113  -0.0220   1.0000   1.0000
  -2.750  -0.1103   0.02199   0.01150  -0.0206   1.0000   0.1901
  -3.000  -0.1339   0.02289   0.01207  -0.0211   1.0000   0.1244
  -3.250  -0.1562   0.02350   0.01271  -0.0221   1.0000   0.1096
  -3.500  -0.1784   0.02429   0.01351  -0.0231   1.0000   0.1027
  -3.750  -0.2018   0.02521   0.01468  -0.0244   1.0000   0.0966
  -4.000  -0.2245   0.02640   0.01588  -0.0254   1.0000   0.0909
  -4.250  -0.2484   0.02798   0.01765  -0.0266   1.0000   0.0898
  -4.500  -0.2722   0.02966   0.01973  -0.0279   1.0000   0.0912
  -4.750  -0.2970   0.03196   0.02283  -0.0293   1.0000   0.0959
  -5.000  -0.3189   0.03467   0.02595  -0.0305   1.0000   0.1008
  -5.250  -0.3406   0.03778   0.02981  -0.0315   1.0000   0.1094
  -5.500  -0.3602   0.04138   0.03400  -0.0322   1.0000   0.1210
  -5.750  -0.3780   0.04563   0.03878  -0.0325   1.0000   0.1387
  -6.750  -0.4001   0.06965   0.06444   0.0029   1.0000   0.4260
  -6.950  -0.4004   0.07151   0.06622   0.0004   1.0000   0.4071
  -7.250  -0.3987   0.07461   0.06918  -0.0029   1.0000   0.3810
  -7.000  -0.4073   0.07261   0.06732  -0.0002   1.0000   0.4042
  -7.100  -0.4000   0.07307   0.06771  -0.0013   1.0000   0.3936
  -7.200  -0.4164   0.07537   0.07004  -0.0026   1.0000   0.3890
  -7.500  -0.4063   0.07767   0.07217  -0.0052   1.0000   0.3634
  -7.750  -0.4178   0.08142   0.07587  -0.0075   1.0000   0.3478
  -7.600  -0.3984   0.07833   0.07274  -0.0059   1.0000   0.3555
  -8.000  -0.4071   0.08349   0.07777  -0.0088   1.0000   0.3324
  -7.750  -0.4178   0.08142   0.07587  -0.0075   1.0000   0.3478
  -7.850  -0.3968   0.08093   0.07522  -0.0079   1.0000   0.3395
  -8.250  -0.4034   0.08591   0.08007  -0.0106   1.0000   0.3184
  -8.000  -0.4071   0.08349   0.07777  -0.0088   1.0000   0.3324
  -8.200  -0.4210   0.08693   0.08119  -0.0105   1.0000   0.3202
  -8.500  -0.4050   0.08898   0.08305  -0.0120   1.0000   0.3053
  -8.750  -0.4098   0.09214   0.08614  -0.0132   1.0000   0.2922
  -9.000  -0.4112   0.09513   0.08903  -0.0143   1.0000   0.2786
  -9.250  -0.4171   0.09854   0.09238  -0.0153   1.0000   0.2653
  -9.500  -0.4228   0.10196   0.09573  -0.0162   1.0000   0.2517
  -9.750  -0.4031   0.10249   0.09609  -0.0149   1.0000   0.2427
  -9.500  -0.4228   0.10196   0.09573  -0.0162   1.0000   0.2517
  -9.600  -0.4074   0.10149   0.09515  -0.0152   1.0000   0.2500
  -9.700  -0.4008   0.10184   0.09544  -0.0147   1.0000   0.2459
 -10.000  -0.4045   0.10553   0.09904  -0.0148   1.0000   0.2327
 -10.250  -0.4129   0.10940   0.10286  -0.0153   1.0000   0.2222
 -10.500  -0.4276   0.11409   0.10754  -0.0163   1.0000   0.2101
 -10.750  -0.4137   0.11479   0.10812  -0.0142   1.0000   0.2044
 -11.000  -0.4275   0.11959   0.11289  -0.0149   1.0000   0.1957
 -10.750  -0.4136   0.11479   0.10812  -0.0142   1.0000   0.2043
 -10.850  -0.4389   0.11963   0.11302  -0.0167   1.0000   0.1968
 -10.950  -0.4289   0.11930   0.11261  -0.0153   1.0000   0.1960
 -11.250  -0.4224   0.12130   0.11452  -0.0135   1.0000   0.1875
 -11.000  -0.4275   0.11959   0.11289  -0.0149   1.0000   0.1958
 -11.100  -0.4201   0.11961   0.11285  -0.0138   1.0000   0.1932
 -11.200  -0.4198   0.12056   0.11378  -0.0134   1.0000   0.1896
 -11.500  -0.4316   0.12572   0.11889  -0.0135   1.0000   0.1816
 -11.750  -0.4288   0.12760   0.12071  -0.0120   1.0000   0.1750
 -12.000  -0.4466   0.13359   0.12677  -0.0129   1.0000   0.1689
 -12.250  -0.4366   0.13424   0.12732  -0.0104   1.0000   0.1645
 -12.500  -0.4522   0.13919   0.13229  -0.0111   1.0000   0.1570
 -12.750  -0.4516   0.14208   0.13510  -0.0095   1.0000   0.1542
 -13.000  -0.4497   0.14387   0.13683  -0.0078   1.0000   0.1488
 -13.250  -0.4753   0.15188   0.14487  -0.0094   1.0000   0.1419
 -13.500  -0.4643   0.15158   0.14447  -0.0065   1.0000   0.1402
 -13.750  -0.4648   0.15365   0.14650  -0.0049   1.0000   0.1347
 -14.000  -0.4909   0.16219   0.15508  -0.0065   1.0000   0.1285
 -14.250  -0.4808   0.16167   0.15446  -0.0035   1.0000   0.1271
 -14.500  -0.4812   0.16331   0.15605  -0.0016   1.0000   0.1229
 -14.750  -0.4983   0.16943   0.16220  -0.0022   1.0000   0.1165
 -15.000  -0.5015   0.17243   0.16514  -0.0006   1.0000   0.1148
 -15.250  -0.4998   0.17321   0.16587   0.0018   1.0000   0.1119
 -15.500  -0.5064   0.17622   0.16886   0.0030   1.0000   0.1071
 -15.750  -0.5264   0.18435   0.17700   0.0023   1.0000   0.1028
 -16.000  -0.5222   0.18391   0.17649   0.0051   1.0000   0.1015
 -16.250  -0.5251   0.18570   0.17824   0.0071   1.0000   0.0978
 -16.500  -0.5332   0.18889   0.18143   0.0083   1.0000   0.0941
 -16.750  -0.5543   0.19837   0.19092   0.0073   1.0000   0.0901
 -17.000  -0.5531   0.19809   0.19059   0.0100   1.0000   0.0895
 -17.250  -0.5544   0.19869   0.19114   0.0126   1.0000   0.0874
 -17.500  -0.5607   0.20124   0.19373   0.0144   1.0000   0.0842
 -17.750  -0.5690   0.20448   0.19696   0.0157   1.0000   0.0812
 -18.000  -0.5822   0.21021   0.20272   0.0159   1.0000   0.0781
 -18.250  -0.5946   0.21694   0.20942   0.0166   1.0000   0.0767
 -18.500  -0.5953   0.21623   0.20865   0.0195   1.0000   0.0759
 -18.750  -0.5999   0.21726   0.20966   0.0220   1.0000   0.0742
 -19.000  -0.6068   0.21964   0.21202   0.0240   1.0000   0.0714
 -19.250  -0.6150   0.22269   0.21506   0.0255   1.0000   0.0684
 -19.500  -0.6244   0.22638   0.21875   0.0267   1.0000   0.0661
 -19.750  -0.6455   0.23971   0.23211   0.0255   1.0000   0.0634
 -20.000  -0.6469   0.23838   0.23073   0.0284   1.0000   0.0631
