  
       XFOIL         Version 6.99
  
 Calculated polar for: S1223 RTL                                       
  
 1 1 Reynolds number fixed          Mach number fixed         
  
 xtrf =   1.000 (top)        1.000 (bottom)  
 Mach =   0.000     Re =     0.050 e 6     Ncrit =   9.000
  
   alpha    CL        CD       CDp       CM     Top_Xtr  Bot_Xtr
  ------ -------- --------- --------- -------- -------- --------
   0.000   0.9961   0.03392   0.02464  -0.2214   0.5513   0.5138
   0.250   1.0144   0.03432   0.02499  -0.2184   0.5446   0.5585
   0.500   1.0497   0.03472   0.02511  -0.2196   0.5380   0.5993
   0.750   1.0775   0.03523   0.02560  -0.2201   0.5316   0.6263
   1.000   1.1108   0.03577   0.02599  -0.2216   0.5258   0.6521
   1.250   1.1510   0.03643   0.02636  -0.2243   0.5205   0.6798
   1.500   1.1740   0.03726   0.02724  -0.2241   0.5158   0.7022
   1.750   1.1987   0.03817   0.02817  -0.2242   0.5106   0.7278
   2.000   1.2244   0.03895   0.02891  -0.2242   0.5057   0.7549
   2.250   1.2530   0.03976   0.02960  -0.2246   0.5015   0.7885
   2.500   1.2697   0.04086   0.03079  -0.2232   0.4983   0.8227
   2.750   1.2742   0.04205   0.03226  -0.2198   0.4956   0.8618
   3.000   1.2769   0.04324   0.03372  -0.2163   0.4927   1.0000
   3.250   1.3165   0.04570   0.03608  -0.2210   0.4879   1.0000
   3.500   1.3614   0.04773   0.03785  -0.2258   0.4833   1.0000
   3.750   1.4030   0.04980   0.03962  -0.2294   0.4796   1.0000
   4.000   1.4007   0.05304   0.04310  -0.2266   0.4776   1.0000
   4.250   1.3874   0.05707   0.04739  -0.2226   0.4762   1.0000
   4.500   1.3510   0.06273   0.05340  -0.2165   0.4756   1.0000
   4.750   1.2579   0.07296   0.06414  -0.2066   0.4775   1.0000
   5.000   1.2003   0.08352   0.07499  -0.2038   0.4800   1.0000
   5.000   1.2003   0.08352   0.07499  -0.2038   0.4800   1.0000
   6.250   0.8914   0.14346   0.13665  -0.2173   0.6165   1.0000
   6.500   0.8907   0.14532   0.13841  -0.2174   0.6025   1.0000
   6.750   0.9371   0.15063   0.14338  -0.2210   0.5972   1.0000
   7.000   0.9298   0.15165   0.14435  -0.2202   0.5824   1.0000
   7.250   0.9750   0.15725   0.14967  -0.2228   0.5780   1.0000
   7.500   0.9614   0.15751   0.14992  -0.2216   0.5630   1.0000
   7.750   0.9999   0.16277   0.15498  -0.2233   0.5591   1.0000
   8.000   0.9844   0.16304   0.15526  -0.2225   0.5455   1.0000
   8.250   1.0179   0.16760   0.15967  -0.2237   0.5406   1.0000
   8.500   1.0073   0.16858   0.16064  -0.2235   0.5288   1.0000
   8.750   1.0351   0.17236   0.16431  -0.2241   0.5223   1.0000
   9.000   1.0340   0.17449   0.16641  -0.2245   0.5140   1.0000
   9.250   1.0490   0.17704   0.16892  -0.2249   0.5053   1.0000
   9.500   1.0790   0.18183   0.17362  -0.2256   0.5013   1.0000
   9.750   1.0672   0.18256   0.17436  -0.2262   0.4924   1.0000
  10.000   1.0847   0.18543   0.17718  -0.2266   0.4848   1.0000
  10.250   1.1167   0.19088   0.18259  -0.2271   0.4810   1.0000
  10.500   1.1010   0.19061   0.18233  -0.2280   0.4715   1.0000
  10.750   1.1179   0.19354   0.18524  -0.2285   0.4648   1.0000
  11.000   1.1450   0.19858   0.19025  -0.2289   0.4613   1.0000
  11.250   1.1387   0.19972   0.19140  -0.2302   0.4559   1.0000
  11.500   1.1452   0.20130   0.19298  -0.2310   0.4474   1.0000
  11.750   1.1672   0.20528   0.19698  -0.2313   0.4425   1.0000
  12.000   1.2005   0.21277   0.20446  -0.2315   0.4399   1.0000
  12.250   1.1752   0.20932   0.20104  -0.2336   0.4310   1.0000
  12.500   1.1891   0.21212   0.20384  -0.2342   0.4252   1.0000
  12.750   1.2109   0.21666   0.20840  -0.2345   0.4216   1.0000
  13.000   1.2431   0.22510   0.21689  -0.2348   0.4195   1.0000
  13.250   1.2153   0.21991   0.21172  -0.2375   0.4111   1.0000
  13.500   1.2288   0.22263   0.21447  -0.2381   0.4050   1.0000
  13.750   1.2502   0.22739   0.21927  -0.2384   0.4014   1.0000
  14.000   1.2795   0.23594   0.22786  -0.2385   0.3994   1.0000
  14.250   1.2550   0.23069   0.22263  -0.2418   0.3929   1.0000
  14.500   1.2648   0.23285   0.22486  -0.2428   0.3866   1.0000
  14.750   1.2828   0.23690   0.22896  -0.2431   0.3824   1.0000
  15.000   1.3095   0.24477   0.23690  -0.2430   0.3798   1.0000
  15.250   1.2972   0.24252   0.23467  -0.2461   0.3761   1.0000
  15.500   1.3003   0.24316   0.23537  -0.2479   0.3693   1.0000
  15.750   1.3141   0.24633   0.23863  -0.2486   0.3644   1.0000
  16.000   1.3357   0.25239   0.24476  -0.2486   0.3611   1.0000
  16.250   1.3568   0.26099   0.25344  -0.2491   0.3592   1.0000
  16.500   1.3359   0.25376   0.24623  -0.2533   0.3526   1.0000
  16.750   1.3461   0.25619   0.24874  -0.2545   0.3469   1.0000
  17.000   1.3638   0.26098   0.25364  -0.2547   0.3429   1.0000
  17.250   1.3911   0.27168   0.26446  -0.2543   0.3406   1.0000
  17.500   1.3717   0.26485   0.25764  -0.2589   0.3359   1.0000
  17.750   1.3783   0.26640   0.25927  -0.2606   0.3294   1.0000
  18.000   1.3938   0.27063   0.26360  -0.2611   0.3248   1.0000
  18.250   1.4191   0.28095   0.27408  -0.2605   0.3221   1.0000
  18.500   1.4043   0.27547   0.26861  -0.2652   0.3178   1.0000
  18.750   1.4104   0.27688   0.27011  -0.2671   0.3109   1.0000
  19.000   1.4260   0.28161   0.27495  -0.2674   0.3063   1.0000
  19.250   1.4520   0.29426   0.28776  -0.2667   0.3037   1.0000
  19.500   1.4326   0.28511   0.27860  -0.2724   0.2977   1.0000
  19.750   1.4423   0.28782   0.28143  -0.2737   0.2915   1.0000
  20.000   1.4636   0.29619   0.28995  -0.2731   0.2874   1.0000
   0.000   0.9961   0.03392   0.02464  -0.2214   0.5513   0.5138
  -0.250   0.9830   0.03325   0.02387  -0.2253   0.5582   0.4591
  -0.500   0.9621   0.03226   0.02294  -0.2290   0.5650   0.3682
  -0.750   0.9429   0.03133   0.02163  -0.2327   0.5731   0.2787
  -1.000   0.8856   0.03145   0.02195  -0.2274   0.5848   0.2070
  -1.250   0.4243   0.05554   0.04961  -0.1065   0.6263   0.3816
  -1.250   0.4243   0.05554   0.04961  -0.1065   0.6263   0.3816
  -1.350   0.4195   0.05664   0.05072  -0.1078   0.6318   0.3799
  -1.450   0.3809   0.05778   0.05208  -0.0986   0.6392   0.3645
  -1.500   0.5534   0.04551   0.03884  -0.1583   0.6328   0.1863
  -1.600   0.5437   0.04570   0.03910  -0.1601   0.6385   0.1828
  -2.000   0.2829   0.06539   0.06031  -0.0859   0.6803   0.3225
  -2.250   0.2404   0.06941   0.06458  -0.0811   0.7026   0.3016
  -2.500   0.1995   0.07331   0.06869  -0.0747   0.7271   0.2830
  -2.750   0.1553   0.07808   0.07362  -0.0678   0.7491   0.2657
  -3.000   0.1183   0.08317   0.07879  -0.0635   0.7725   0.2531
  -3.250   0.0850   0.08871   0.08438  -0.0640   0.8008   0.2400
  -3.500   0.0438   0.09336   0.08907  -0.0556   0.8286   0.2228
  -3.750   0.0081   0.09815   0.09385  -0.0486   0.8604   0.2090
  -4.000  -0.0387   0.10587   0.10156  -0.0463   0.8878   0.1989
  -4.250  -0.0797   0.10942   0.10512  -0.0359   0.9175   0.1847
  -4.500  -0.1155   0.11405   0.10970  -0.0274   0.9425   0.1776
  -4.750  -0.1696   0.12018   0.11585  -0.0196   0.9644   0.1655
  -4.750  -0.1696   0.12017   0.11585  -0.0196   0.9644   0.1655
  -4.850  -0.1961   0.12528   0.12095  -0.0182   0.9713   0.1633
  -4.950  -0.1949   0.12330   0.11895  -0.0125   0.9814   0.1618
  -5.250  -0.2316   0.12541   0.12102  -0.0019   1.0000   0.1511
  -5.500  -0.2714   0.13481   0.13034  -0.0028   1.0000   0.1463
  -5.750  -0.2464   0.13292   0.12828  -0.0046   1.0000   0.1459
  -6.000  -0.2250   0.13126   0.12646  -0.0060   1.0000   0.1449
  -6.250  -0.2111   0.13063   0.12570  -0.0069   1.0000   0.1424
  -6.500  -0.2059   0.13149   0.12645  -0.0078   1.0000   0.1388
  -6.750  -0.2059   0.13320   0.12806  -0.0090   1.0000   0.1352
  -7.000  -0.2452   0.14376   0.13860  -0.0110   1.0000   0.1299
  -7.250  -0.2241   0.14154   0.13624  -0.0118   1.0000   0.1294
  -7.500  -0.2094   0.14021   0.13479  -0.0122   1.0000   0.1283
  -7.750  -0.2007   0.14003   0.13450  -0.0126   1.0000   0.1253
  -8.000  -0.1994   0.14141   0.13580  -0.0134   1.0000   0.1218
  -8.250  -0.2020   0.14350   0.13781  -0.0145   1.0000   0.1185
  -8.500  -0.2236   0.15060   0.14489  -0.0165   1.0000   0.1149
  -8.750  -0.2224   0.15279   0.14696  -0.0171   1.0000   0.1140
  -9.000  -0.2107   0.15149   0.14556  -0.0172   1.0000   0.1133
  -9.250  -0.2037   0.15127   0.14525  -0.0173   1.0000   0.1113
  -9.500  -0.2028   0.15253   0.14643  -0.0178   1.0000   0.1088
  -9.750  -0.2042   0.15435   0.14817  -0.0184   1.0000   0.1061
 -10.000  -0.2077   0.15661   0.15037  -0.0192   1.0000   0.1037
 -10.250  -0.2151   0.16003   0.15373  -0.0204   1.0000   0.1016
 -10.500  -0.2325   0.16771   0.16136  -0.0218   1.0000   0.0999
 -10.750  -0.2228   0.16621   0.15976  -0.0216   1.0000   0.0994
 -11.000  -0.2176   0.16580   0.15927  -0.0214   1.0000   0.0983
 -11.250  -0.2169   0.16676   0.16015  -0.0214   1.0000   0.0965
 -11.500  -0.2190   0.16847   0.16179  -0.0217   1.0000   0.0945
 -11.750  -0.2222   0.17056   0.16382  -0.0220   1.0000   0.0923
 -12.000  -0.2269   0.17298   0.16619  -0.0225   1.0000   0.0903
 -12.250  -0.2342   0.17637   0.16952  -0.0233   1.0000   0.0886
 -12.500  -0.2515   0.18457   0.17767  -0.0247   1.0000   0.0871
 -12.750  -0.2460   0.18340   0.17642  -0.0241   1.0000   0.0868
 -13.000  -0.2438   0.18319   0.17614  -0.0236   1.0000   0.0860
 -13.250  -0.2450   0.18416   0.17703  -0.0232   1.0000   0.0847
 -13.500  -0.2483   0.18595   0.17877  -0.0230   1.0000   0.0828
 -13.750  -0.2528   0.18807   0.18083  -0.0229   1.0000   0.0811
 -14.000  -0.2582   0.19047   0.18319  -0.0230   1.0000   0.0792
 -14.250  -0.2651   0.19352   0.18619  -0.0233   1.0000   0.0775
 -14.250  -0.2651   0.19352   0.18619  -0.0233   1.0000   0.0775
 -14.350  -0.2696   0.19562   0.18827  -0.0237   1.0000   0.0767
 -14.450  -0.2742   0.19785   0.19049  -0.0240   1.0000   0.0763
 -14.750  -0.2802   0.20127   0.19382  -0.0237   1.0000   0.0756
 -15.000  -0.2803   0.20108   0.19357  -0.0227   1.0000   0.0749
 -15.250  -0.2835   0.20228   0.19472  -0.0219   1.0000   0.0736
 -15.500  -0.2885   0.20429   0.19668  -0.0215   1.0000   0.0720
 -15.750  -0.2942   0.20658   0.19892  -0.0211   1.0000   0.0705
 -16.000  -0.3004   0.20898   0.20128  -0.0207   1.0000   0.0693
 -16.250  -0.3072   0.21167   0.20393  -0.0205   1.0000   0.0681
 -16.500  -0.3152   0.21516   0.20738  -0.0205   1.0000   0.0670
 -16.500  -0.3152   0.21516   0.20738  -0.0205   1.0000   0.0670
 -16.600  -0.3193   0.21723   0.20944  -0.0207   1.0000   0.0666
 -16.700  -0.3246   0.22015   0.21235  -0.0209   1.0000   0.0663
 -17.000  -0.3293   0.22179   0.21392  -0.0198   1.0000   0.0659
 -17.250  -0.3327   0.22241   0.21449  -0.0186   1.0000   0.0654
 -17.500  -0.3378   0.22390   0.21593  -0.0176   1.0000   0.0647
 -17.750  -0.3437   0.22589   0.21788  -0.0167   1.0000   0.0636
 -18.000  -0.3501   0.22814   0.22009  -0.0159   1.0000   0.0626
 -18.250  -0.3568   0.23055   0.22247  -0.0152   1.0000   0.0614
 -18.500  -0.3638   0.23300   0.22488  -0.0145   1.0000   0.0604
 -18.750  -0.3711   0.23568   0.22754  -0.0138   1.0000   0.0594
 -19.000  -0.3789   0.23887   0.23070  -0.0133   1.0000   0.0585
 -19.250  -0.3887   0.24393   0.23574  -0.0133   1.0000   0.0579
 -19.500  -0.3946   0.24597   0.23772  -0.0122   1.0000   0.0576
 -19.750  -0.3998   0.24688   0.23859  -0.0107   1.0000   0.0573
 -20.000  -0.4057   0.24836   0.24003  -0.0093   1.0000   0.0568
