  
       XFOIL         Version 6.99
  
 Calculated polar for: Fage & Collins 3                                
  
 1 1 Reynolds number fixed          Mach number fixed         
  
 xtrf =   1.000 (top)        1.000 (bottom)  
 Mach =   0.000     Re =     0.050 e 6     Ncrit =   9.000
  
   alpha    CL        CD       CDp       CM     Top_Xtr  Bot_Xtr
  ------ -------- --------- --------- -------- -------- --------
   0.000   0.0873   0.03417   0.02299  -0.0317   0.9093   0.1517
   0.250   0.1567   0.03327   0.02198  -0.0388   0.8851   0.1622
   0.500   0.2281   0.03227   0.02092  -0.0457   0.8642   0.1749
   0.750   0.3858   0.02851   0.01924  -0.0693   0.8451   1.0000
   1.000   0.4510   0.02765   0.01787  -0.0743   0.8210   1.0000
   1.250   0.5068   0.02681   0.01673  -0.0778   0.7938   1.0000
   1.500   0.5584   0.02589   0.01558  -0.0806   0.7672   1.0000
   1.750   0.6098   0.02494   0.01442  -0.0832   0.7417   1.0000
   2.000   0.6614   0.02410   0.01336  -0.0860   0.7173   1.0000
   2.250   0.6944   0.02403   0.01311  -0.0861   0.6912   1.0000
   2.500   0.7283   0.02408   0.01297  -0.0865   0.6680   1.0000
   2.750   0.7590   0.02435   0.01307  -0.0866   0.6472   1.0000
   3.000   0.7912   0.02465   0.01321  -0.0870   0.6290   1.0000
   3.250   0.8182   0.02519   0.01363  -0.0867   0.6125   1.0000
   3.500   0.8440   0.02583   0.01419  -0.0863   0.5978   1.0000
   3.750   0.8679   0.02658   0.01493  -0.0856   0.5844   1.0000
   4.000   0.8877   0.02750   0.01585  -0.0844   0.5720   1.0000
   4.250   0.9076   0.02847   0.01684  -0.0833   0.5606   1.0000
   4.500   0.9318   0.02936   0.01773  -0.0828   0.5510   1.0000
   4.750   0.9510   0.03047   0.01893  -0.0816   0.5420   1.0000
   5.000   0.9667   0.03176   0.02032  -0.0801   0.5336   1.0000
   5.250   0.9901   0.03277   0.02136  -0.0795   0.5255   1.0000
   5.500   0.9982   0.03444   0.02320  -0.0770   0.5180   1.0000
   5.750   1.0181   0.03572   0.02457  -0.0760   0.5114   1.0000
   6.000   1.0269   0.03759   0.02664  -0.0739   0.5057   1.0000
   6.250   1.0285   0.03981   0.02905  -0.0709   0.4997   1.0000
   6.500   1.0607   0.04070   0.02997  -0.0715   0.4938   1.0000
   6.750   1.0330   0.04457   0.03410  -0.0655   0.4886   1.0000
   7.000   1.0195   0.04806   0.03773  -0.0617   0.4842   1.0000
   7.250   1.0474   0.04929   0.03909  -0.0619   0.4795   1.0000
   7.500   0.9756   0.05691   0.04672  -0.0541   0.4768   1.0000
   7.750   0.8682   0.06956   0.05914  -0.0497   0.4778   1.0000
   8.000   0.8359   0.07677   0.06633  -0.0500   0.4794   1.0000
   8.000   0.8359   0.07677   0.06633  -0.0500   0.4793   1.0000
   8.250   0.7549   0.08886   0.07830  -0.0524   0.5064   1.0000
   8.350   0.7604   0.09030   0.07978  -0.0528   0.5078   1.0000
   9.100   0.6570   0.10889   0.09837  -0.0577   0.6174   1.0000
   9.200   0.6726   0.11065   0.10022  -0.0587   0.6143   1.0000
   9.250   0.6823   0.11189   0.10148  -0.0594   0.6132   1.0000
   9.350   0.6647   0.11136   0.10093  -0.0573   0.6057   1.0000
   9.450   0.6754   0.11267   0.10228  -0.0577   0.6013   1.0000
   9.750   0.6833   0.11561   0.10530  -0.0572   0.5882   1.0000
  10.000   0.6908   0.11826   0.10801  -0.0569   0.5774   1.0000
  10.250   0.7136   0.12189   0.11175  -0.0578   0.5676   1.0000
  10.500   0.7220   0.12426   0.11422  -0.0574   0.5554   1.0000
  10.750   0.7196   0.12636   0.11639  -0.0566   0.5444   1.0000
  11.000   0.7327   0.12971   0.11984  -0.0569   0.5364   1.0000
  11.250   0.7506   0.13290   0.12317  -0.0573   0.5250   1.0000
  11.500   0.7466   0.13476   0.12508  -0.0565   0.5134   1.0000
  11.750   0.7562   0.13804   0.12847  -0.0567   0.5061   1.0000
  12.000   0.7672   0.14085   0.13140  -0.0568   0.4963   1.0000
  12.250   0.7665   0.14340   0.13405  -0.0567   0.4885   1.0000
  12.500   0.7859   0.14709   0.13792  -0.0573   0.4804   1.0000
  12.750   0.7809   0.14902   0.13991  -0.0570   0.4707   1.0000
  12.750   0.7809   0.14902   0.13991  -0.0570   0.4707   1.0000
  12.850   0.7891   0.15046   0.14143  -0.0572   0.4671   1.0000
  12.950   0.8036   0.15284   0.14393  -0.0576   0.4647   1.0000
  13.250   0.7969   0.15492   0.14609  -0.0575   0.4538   1.0000
  13.500   0.8198   0.16003   0.15144  -0.0583   0.4483   1.0000
  13.750   0.8148   0.16122   0.15272  -0.0581   0.4367   1.0000
  14.000   0.8449   0.16475   0.15663  -0.0567   0.4033   1.0000
  14.250   1.1169   0.09136   0.08268  -0.0059   0.0828   1.0000
  14.500   1.1249   0.09389   0.08545  -0.0048   0.0810   1.0000
  14.750   1.1266   0.09752   0.08929  -0.0046   0.0787   1.0000
  15.000   1.1275   0.10123   0.09315  -0.0047   0.0763   1.0000
  15.250   1.1296   0.10489   0.09700  -0.0047   0.0749   1.0000
  15.500   1.1159   0.11135   0.10370  -0.0072   0.0752   1.0000
  15.750   1.0709   0.12457   0.11734  -0.0148   0.0796   1.0000
  16.000   1.0381   0.13629   0.12921  -0.0211   0.0819   1.0000
  16.250   1.0178   0.14597   0.13894  -0.0257   0.0836   1.0000
  16.250   0.9993   0.15106   0.14403  -0.0291   0.0855   1.0000
  16.350   1.0049   0.15138   0.14437  -0.0286   0.0846   1.0000
  16.750   0.9438   0.17962   0.17226  -0.0437   0.0946   1.0000
  17.000   0.9460   0.18524   0.17787  -0.0455   0.0956   1.0000
  17.250   0.9242   0.19780   0.19028  -0.0531   0.1040   1.0000
  17.500   0.9316   0.20285   0.19534  -0.0543   0.1073   1.0000
  17.750   0.6561   0.19041   0.18349  -0.0426   0.1930   1.0000
  18.000   0.6574   0.19354   0.18665  -0.0438   0.1919   1.0000
  18.250   0.6610   0.19675   0.18989  -0.0446   0.1893   1.0000
  18.500   0.6778   0.20295   0.19614  -0.0445   0.1856   1.0000
  18.750   0.6708   0.20423   0.19742  -0.0462   0.1847   1.0000
  19.000   0.6662   0.20584   0.19904  -0.0479   0.1816   1.0000
  19.250   0.6685   0.20861   0.20184  -0.0490   0.1774   1.0000
  19.500   0.6747   0.21217   0.20544  -0.0496   0.1745   1.0000
  19.750   0.6896   0.21887   0.21221  -0.0497   0.1723   1.0000
  20.000   0.6815   0.21925   0.21259  -0.0517   0.1713   1.0000
   0.000   0.0873   0.03417   0.02299  -0.0317   0.9093   0.1517
  -0.250  -0.0002   0.03510   0.02432  -0.0215   0.9303   0.1516
  -0.500  -0.0642   0.03620   0.02572  -0.0153   0.9520   0.1562
  -0.750  -0.1273   0.03688   0.02700  -0.0092   0.9743   0.1616
  -0.750  -0.1273   0.03688   0.02700  -0.0092   0.9743   0.1616
  -0.850  -0.1538   0.03722   0.02763  -0.0067   0.9820   0.1652
  -0.950  -0.1797   0.03788   0.02846  -0.0041   0.9896   0.1715
  -1.250  -0.2317   0.03904   0.03044  -0.0011   1.0000   0.2015
  -1.500  -0.2561   0.04036   0.03238  -0.0018   1.0000   0.2362
  -1.750  -0.2916   0.04233   0.03526   0.0001   1.0000   0.3107
  -1.750  -0.4497   0.04563   0.04151   0.0703   1.0000   0.7636
  -1.850  -0.4337   0.04652   0.04237   0.0695   1.0000   0.7779
  -1.950  -0.4167   0.04726   0.04306   0.0677   1.0000   0.7895
  -2.250  -0.3574   0.04901   0.04458   0.0578   1.0000   0.8040
  -2.500  -0.3065   0.05000   0.04537   0.0480   1.0000   0.8101
  -2.750  -0.2591   0.05083   0.04600   0.0394   1.0000   0.8253
  -3.000  -0.2136   0.05148   0.04646   0.0314   1.0000   0.8492
  -3.250  -0.1661   0.05183   0.04660   0.0226   1.0000   0.8774
  -3.500  -0.1153   0.05165   0.04620   0.0124   1.0000   0.9068
  -3.750  -0.0640   0.05100   0.04533   0.0011   1.0000   0.9356
  -4.000  -0.0079   0.04975   0.04383  -0.0123   1.0000   0.9653
  -4.250   0.0456   0.04815   0.04196  -0.0265   1.0000   0.9928
  -4.500   0.0621   0.04845   0.04209  -0.0321   1.0000   1.0000
  -4.750   0.0583   0.04995   0.04351  -0.0329   1.0000   1.0000
  -5.000   0.0536   0.05152   0.04502  -0.0334   1.0000   1.0000
  -5.250  -0.4393   0.07885   0.07366   0.0014   1.0000   0.3078
  -5.500  -0.4336   0.08103   0.07578  -0.0012   1.0000   0.2864
  -5.750  -0.4338   0.08370   0.07839  -0.0045   1.0000   0.2681
  -6.000  -0.4236   0.08582   0.08043  -0.0060   1.0000   0.2556
  -6.250  -0.4161   0.08823   0.08276  -0.0082   1.0000   0.2438
  -6.500  -0.4162   0.09112   0.08559  -0.0109   1.0000   0.2322
  -6.500  -0.4162   0.09112   0.08559  -0.0109   1.0000   0.2322
  -6.600  -0.4064   0.09147   0.08589  -0.0112   1.0000   0.2296
  -6.700  -0.4026   0.09214   0.08653  -0.0120   1.0000   0.2254
  -7.000  -0.4259   0.09807   0.09242  -0.0176   1.0000   0.2039
  -7.250  -0.3972   0.09837   0.09260  -0.0176   1.0000   0.2025
  -7.500  -0.3707   0.09879   0.09286  -0.0199   1.0000   0.2002
  -7.750  -0.3843   0.10298   0.09703  -0.0223   1.0000   0.1877
  -8.000  -0.3577   0.10322   0.09708  -0.0240   1.0000   0.1861
  -8.250  -0.3451   0.10453   0.09826  -0.0252   1.0000   0.1788
  -8.500  -0.3488   0.10802   0.10168  -0.0268   1.0000   0.1712
  -8.750  -0.3366   0.10916   0.10269  -0.0270   1.0000   0.1658
  -9.000  -0.3551   0.11459   0.10811  -0.0293   1.0000   0.1573
  -9.250  -0.3373   0.11486   0.10823  -0.0285   1.0000   0.1547
  -9.500  -0.3346   0.11694   0.11022  -0.0286   1.0000   0.1482
  -9.750  -0.3540   0.12292   0.11620  -0.0307   1.0000   0.1421
 -10.000  -0.3381   0.12300   0.11613  -0.0291   1.0000   0.1397
 -10.250  -0.3357   0.12495   0.11801  -0.0287   1.0000   0.1346
 -10.500  -0.3633   0.13283   0.12595  -0.0316   1.0000   0.1272
 -10.750  -0.3492   0.13271   0.12568  -0.0297   1.0000   0.1261
 -11.000  -0.3422   0.13368   0.12655  -0.0283   1.0000   0.1228
 -11.250  -0.3453   0.13643   0.12928  -0.0282   1.0000   0.1169
 -11.500  -0.3691   0.14437   0.13724  -0.0304   1.0000   0.1118
 -11.750  -0.3596   0.14440   0.13717  -0.0285   1.0000   0.1110
 -12.000  -0.3544   0.14522   0.13791  -0.0269   1.0000   0.1083
 -12.250  -0.3567   0.14769   0.14033  -0.0263   1.0000   0.1031
 -12.500  -0.3884   0.15834   0.15103  -0.0294   1.0000   0.0969
 -12.750  -0.3802   0.15817   0.15077  -0.0273   1.0000   0.0964
 -13.000  -0.3744   0.15834   0.15086  -0.0254   1.0000   0.0954
 -13.250  -0.3734   0.15962   0.15209  -0.0240   1.0000   0.0929
 -13.500  -0.3768   0.16211   0.15455  -0.0231   1.0000   0.0897
 -13.750  -0.3828   0.16517   0.15758  -0.0226   1.0000   0.0868
 -14.000  -0.3936   0.16969   0.16209  -0.0227   1.0000   0.0839
 -14.250  -0.4138   0.17886   0.17129  -0.0237   1.0000   0.0818
 -14.500  -0.4094   0.17856   0.17092  -0.0217   1.0000   0.0814
 -14.750  -0.4059   0.17830   0.17059  -0.0197   1.0000   0.0802
 -15.000  -0.4087   0.17995   0.17221  -0.0183   1.0000   0.0783
 -15.250  -0.4138   0.18237   0.17460  -0.0171   1.0000   0.0761
 -15.500  -0.4198   0.18527   0.17747  -0.0162   1.0000   0.0735
 -15.750  -0.4272   0.18846   0.18064  -0.0155   1.0000   0.0714
 -16.000  -0.4403   0.19446   0.18666  -0.0158   1.0000   0.0687
 -16.250  -0.4573   0.20356   0.19574  -0.0159   1.0000   0.0674
 -16.500  -0.4537   0.20192   0.19403  -0.0137   1.0000   0.0669
 -16.750  -0.4547   0.20184   0.19391  -0.0116   1.0000   0.0661
 -17.000  -0.4584   0.20292   0.19495  -0.0098   1.0000   0.0642
 -17.250  -0.4647   0.20531   0.19732  -0.0084   1.0000   0.0625
 -17.500  -0.4715   0.20806   0.20006  -0.0071   1.0000   0.0604
 -17.750  -0.4789   0.21097   0.20298  -0.0060   1.0000   0.0588
 -18.000  -0.4868   0.21428   0.20628  -0.0050   1.0000   0.0571
 -18.250  -0.4960   0.21838   0.21038  -0.0043   1.0000   0.0558
 -18.500  -0.5201   0.23373   0.22575  -0.0056   1.0000   0.0541
 -18.750  -0.5206   0.23264   0.22462  -0.0035   1.0000   0.0540
 -19.000  -0.5214   0.23119   0.22312  -0.0012   1.0000   0.0537
 -19.250  -0.5251   0.23117   0.22307   0.0010   1.0000   0.0533
 -19.500  -0.5303   0.23199   0.22386   0.0031   1.0000   0.0524
 -19.750  -0.5370   0.23390   0.22576   0.0049   1.0000   0.0514
 -20.000  -0.5442   0.23629   0.22813   0.0065   1.0000   0.0501
