  
       XFOIL         Version 6.99
  
 Calculated polar for: Ornithopter airfoil.                            
  
 1 1 Reynolds number fixed          Mach number fixed         
  
 xtrf =   1.000 (top)        1.000 (bottom)  
 Mach =   0.000     Re =     0.050 e 6     Ncrit =   9.000
  
   alpha    CL        CD       CDp       CM     Top_Xtr  Bot_Xtr
  ------ -------- --------- --------- -------- -------- --------
   0.000  -0.1678   0.04226   0.03507  -0.0343   1.0000   0.8654
   0.250  -0.1552   0.04194   0.03483  -0.0325   1.0000   0.9377
   0.500  -0.1326   0.04159   0.03431  -0.0357   1.0000   1.0000
   0.750  -0.0954   0.04291   0.03525  -0.0417   1.0000   1.0000
   1.000  -0.0535   0.04486   0.03678  -0.0482   0.9966   1.0000
   1.250  -0.0147   0.04692   0.03847  -0.0535   0.9920   1.0000
   1.500   0.0257   0.04936   0.04053  -0.0587   0.9856   1.0000
   1.750   0.0530   0.05085   0.04178  -0.0614   0.9794   1.0000
   2.000   0.0913   0.05362   0.04424  -0.0657   0.9733   1.0000
   2.250   0.1133   0.05469   0.04514  -0.0672   0.9650   1.0000
   2.500   0.1404   0.05665   0.04691  -0.0695   0.9588   1.0000
   2.750   0.1725   0.05887   0.04894  -0.0725   0.9498   1.0000
   3.000   0.1914   0.06008   0.05003  -0.0734   0.9409   1.0000
   3.250   0.2202   0.06240   0.05220  -0.0758   0.9341   1.0000
   3.500   0.2471   0.06426   0.05394  -0.0778   0.9233   1.0000
   3.750   0.2634   0.06552   0.05513  -0.0782   0.9139   1.0000
   4.000   0.2942   0.06820   0.05770  -0.0808   0.9066   1.0000
   4.250   0.3150   0.06969   0.05913  -0.0818   0.8949   1.0000
   4.500   0.3304   0.07115   0.06054  -0.0820   0.8853   1.0000
   4.750   0.3635   0.07416   0.06347  -0.0850   0.8773   1.0000
   5.000   0.3794   0.07541   0.06471  -0.0852   0.8651   1.0000
   5.250   0.3932   0.07699   0.06627  -0.0852   0.8553   1.0000
   5.500   0.4260   0.08011   0.06935  -0.0880   0.8469   1.0000
   5.750   0.4407   0.08147   0.07071  -0.0881   0.8344   1.0000
   6.000   0.4518   0.08309   0.07234  -0.0879   0.8244   1.0000
   6.250   0.4805   0.08605   0.07529  -0.0901   0.8157   1.0000
   6.500   0.4991   0.08790   0.07718  -0.0907   0.8031   1.0000
   6.750   0.5077   0.08950   0.07880  -0.0903   0.7921   1.0000
   7.000   0.5289   0.09217   0.08150  -0.0915   0.7835   1.0000
   7.250   0.5574   0.09495   0.08432  -0.0934   0.7713   1.0000
   7.500   0.5625   0.09636   0.08579  -0.0926   0.7590   1.0000
   7.750   0.5741   0.09857   0.08804  -0.0928   0.7487   1.0000
   8.000   0.6018   0.10178   0.09130  -0.0947   0.7388   1.0000
   8.250   0.6195   0.10398   0.09357  -0.0953   0.7257   1.0000
   8.500   0.6232   0.10577   0.09542  -0.0947   0.7139   1.0000
   8.750   0.6356   0.10828   0.09802  -0.0950   0.7034   1.0000
   9.000   0.6623   0.11158   0.10140  -0.0967   0.6928   1.0000
   9.250   0.6826   0.11418   0.10409  -0.0976   0.6791   1.0000
   9.500   0.6825   0.11594   0.10593  -0.0969   0.6669   1.0000
   9.750   0.6910   0.11849   0.10855  -0.0970   0.6556   1.0000
  10.000   0.7100   0.12164   0.11183  -0.0981   0.6454   1.0000
  10.250   0.7353   0.12487   0.11516  -0.0994   0.6321   1.0000
  10.500   0.7441   0.12707   0.11746  -0.0994   0.6185   1.0000
  10.750   0.7445   0.12932   0.11979  -0.0992   0.6066   1.0000
  11.000   0.7536   0.13218   0.12275  -0.0996   0.5954   1.0000
  11.250   0.7717   0.13547   0.12618  -0.1006   0.5842   1.0000
  11.500   0.7919   0.13862   0.12944  -0.1014   0.5703   1.0000
  11.750   0.8109   0.14166   0.13261  -0.1021   0.5556   1.0000
  12.000   0.8052   0.14361   0.13464  -0.1020   0.5438   1.0000
  12.250   0.8094   0.14653   0.13765  -0.1025   0.5328   1.0000
  12.500   0.8250   0.15005   0.14132  -0.1034   0.5225   1.0000
  12.750   0.8410   0.15318   0.14457  -0.1040   0.5083   1.0000
  13.000   0.8583   0.15640   0.14793  -0.1046   0.4938   1.0000
  13.250   0.9259   0.14641   0.13817  -0.0968   0.3965   1.0000
  13.500   0.9381   0.14870   0.14059  -0.0968   0.3818   1.0000
  13.750   0.9504   0.15105   0.14307  -0.0969   0.3675   1.0000
  14.000   0.9625   0.15329   0.14547  -0.0969   0.3527   1.0000
  14.250   0.9756   0.15560   0.14792  -0.0969   0.3388   1.0000
  14.500   0.9873   0.15777   0.15022  -0.0968   0.3241   1.0000
  14.750   1.0007   0.15985   0.15245  -0.0966   0.3101   1.0000
  15.000   1.0125   0.16187   0.15460  -0.0964   0.2955   1.0000
  15.250   0.9969   0.16833   0.16108  -0.0996   0.2894   1.0000
  15.500   1.0277   0.16731   0.16031  -0.0971   0.2695   1.0000
  15.750   1.0509   0.16706   0.16025  -0.0953   0.2526   1.0000
  16.000   1.0262   0.17619   0.16931  -0.1004   0.2501   1.0000
  16.250   1.0375   0.17836   0.17160  -0.1004   0.2363   1.0000
  16.500   1.0246   0.18558   0.17881  -0.1045   0.2340   1.0000
  16.750   1.0345   0.18812   0.18145  -0.1048   0.2205   1.0000
  17.000   1.0269   0.19457   0.18791  -0.1084   0.2190   1.0000
  17.250   1.0228   0.20037   0.19372  -0.1116   0.2179   1.0000
  17.500   1.0214   0.20628   0.19967  -0.1147   0.2192   1.0000
  17.750   1.0342   0.20796   0.20144  -0.1145   0.1987   1.0000
  18.000   1.0463   0.20930   0.20286  -0.1141   0.1767   1.0000
  18.250   1.0431   0.21502   0.20856  -0.1175   0.1752   1.0000
  18.500   1.0434   0.22088   0.21442  -0.1206   0.1764   1.0000
  18.750   1.0575   0.22217   0.21579  -0.1201   0.1556   1.0000
  19.000   1.0657   0.22700   0.22065  -0.1215   0.1514   1.0000
  19.250   1.0835   0.22937   0.22309  -0.1206   0.1389   1.0000
