  
       XFOIL         Version 6.99
  
 Calculated polar for: E184  (8.33%)                                   
  
 1 1 Reynolds number fixed          Mach number fixed         
  
 xtrf =   1.000 (top)        1.000 (bottom)  
 Mach =   0.000     Re =     0.050 e 6     Ncrit =   9.000
  
   alpha    CL        CD       CDp       CM     Top_Xtr  Bot_Xtr
  ------ -------- --------- --------- -------- -------- --------
   0.000  -0.0353   0.01876   0.00837  -0.0011   0.9993   1.0000
   0.250   0.0085   0.01941   0.00890  -0.0057   0.9884   1.0000
   0.500   0.0517   0.02010   0.00950  -0.0101   0.9776   1.0000
   0.750   0.0950   0.02082   0.01017  -0.0144   0.9669   1.0000
   1.000   0.1400   0.02158   0.01090  -0.0190   0.9561   1.0000
   1.250   0.1785   0.02230   0.01163  -0.0223   0.9445   1.0000
   1.500   0.2148   0.02305   0.01240  -0.0251   0.9327   1.0000
   1.750   0.2517   0.02382   0.01325  -0.0279   0.9203   1.0000
   2.000   0.2892   0.02462   0.01413  -0.0307   0.9075   1.0000
   2.250   0.3277   0.02542   0.01505  -0.0335   0.8936   1.0000
   2.500   0.3661   0.02622   0.01603  -0.0362   0.8789   1.0000
   2.750   0.4035   0.02699   0.01697  -0.0383   0.8631   1.0000
   3.000   0.4434   0.02772   0.01790  -0.0404   0.8461   1.0000
   3.250   0.4649   0.02854   0.01887  -0.0395   0.8272   1.0000
   3.500   0.4990   0.02913   0.01973  -0.0397   0.8068   1.0000
   3.750   0.5233   0.02977   0.02057  -0.0384   0.7849   1.0000
   4.000   0.5552   0.02997   0.02102  -0.0367   0.7620   1.0000
   4.250   0.5770   0.03019   0.02146  -0.0337   0.7362   1.0000
   4.500   0.5985   0.03011   0.02166  -0.0299   0.7088   1.0000
   4.750   0.6193   0.02962   0.02141  -0.0251   0.6802   1.0000
   5.000   0.6393   0.02860   0.02060  -0.0192   0.6502   1.0000
   5.250   0.6565   0.02751   0.01973  -0.0134   0.6122   1.0000
   5.500   0.6744   0.02559   0.01798  -0.0064   0.5688   1.0000
   5.750   0.6906   0.02328   0.01576   0.0010   0.4992   1.0000
   6.000   0.7005   0.02270   0.01417   0.0077   0.3450   1.0000
   6.250   0.7075   0.02597   0.01610   0.0106   0.2139   1.0000
   6.500   0.7208   0.02905   0.01856   0.0126   0.1428   1.0000
   6.750   0.7424   0.03173   0.02105   0.0144   0.1137   1.0000
   7.000   0.7662   0.03442   0.02378   0.0158   0.0992   1.0000
   7.250   0.7884   0.03738   0.02704   0.0170   0.0906   1.0000
   7.500   0.8101   0.04067   0.03077   0.0181   0.0872   1.0000
   7.750   0.8290   0.04436   0.03488   0.0191   0.0858   1.0000
   8.000   0.8427   0.04859   0.03969   0.0200   0.0863   1.0000
   8.250   0.8501   0.05326   0.04497   0.0206   0.0881   1.0000
   8.500   0.8523   0.05813   0.05032   0.0209   0.0899   1.0000
   8.750   0.8501   0.06306   0.05561   0.0210   0.0918   1.0000
   9.000   0.8465   0.06789   0.06065   0.0208   0.0934   1.0000
   9.250   0.8465   0.07291   0.06578   0.0206   0.0950   1.0000
   9.500   0.7956   0.07902   0.07221   0.0165   0.1013   1.0000
   9.750   0.7714   0.08564   0.07882   0.0122   0.1048   1.0000
  10.000   0.6572   0.08468   0.07811   0.0118   0.1056   1.0000
  10.000   0.7849   0.09066   0.08383   0.0131   0.1088   1.0000
  10.100   0.6549   0.08713   0.08056   0.0112   0.1069   1.0000
  10.200   0.6569   0.08920   0.08262   0.0112   0.1080   1.0000
  10.500   0.6174   0.10189   0.09522   0.0024   0.1195   1.0000
  10.750   0.5850   0.11436   0.10761  -0.0062   0.1674   1.0000
  11.000   0.6770   0.13277   0.12550  -0.0254   0.2499   1.0000
  11.250   0.6986   0.13908   0.13187  -0.0248   0.2463   1.0000
  11.500   0.6786   0.14070   0.13336  -0.0275   0.2386   1.0000
  11.500   0.6786   0.14070   0.13336  -0.0275   0.2386   1.0000
  11.600   0.6830   0.14248   0.13516  -0.0276   0.2359   1.0000
  11.700   0.6919   0.14482   0.13751  -0.0273   0.2339   1.0000
  12.000   0.6849   0.14858   0.14120  -0.0293   0.2268   1.0000
  12.250   0.7027   0.15394   0.14660  -0.0289   0.2195   1.0000
  12.500   0.6937   0.15648   0.14907  -0.0311   0.2146   1.0000
  12.750   0.7044   0.16081   0.15341  -0.0313   0.2067   1.0000
  13.000   0.7041   0.16438   0.15694  -0.0329   0.2019   1.0000
  13.250   0.7119   0.16812   0.16068  -0.0334   0.1931   1.0000
  13.500   0.7147   0.17197   0.16449  -0.0348   0.1885   1.0000
  13.750   0.7203   0.17520   0.16777  -0.0357   0.1798   1.0000
  14.000   0.7259   0.17940   0.17194  -0.0369   0.1751   1.0000
  14.250   0.7276   0.18198   0.17450  -0.0385   0.1677   1.0000
  14.500   0.7446   0.18834   0.18088  -0.0383   0.1627   1.0000
  14.750   0.7374   0.18911   0.18159  -0.0414   0.1574   1.0000
  15.000   0.7501   0.19374   0.18624  -0.0417   0.1516   1.0000
  15.250   0.7601   0.19900   0.19149  -0.0426   0.1489   1.0000
  15.500   0.7559   0.19983   0.19226  -0.0457   0.1443   1.0000
  15.750   0.7660   0.20386   0.19632  -0.0465   0.1389   1.0000
  16.000   0.7830   0.21116   0.20363  -0.0464   0.1357   1.0000
  16.250   0.7769   0.21077   0.20317  -0.0501   0.1329   1.0000
  16.500   0.7828   0.21374   0.20614  -0.0519   0.1280   1.0000
  16.750   0.7987   0.21984   0.21229  -0.0517   0.1236   1.0000
  17.000   0.8054   0.22408   0.21649  -0.0535   0.1219   1.0000
  17.250   0.8041   0.22432   0.21669  -0.0569   0.1187   1.0000
  17.500   0.8110   0.22739   0.21975  -0.0587   0.1145   1.0000
  17.750   0.8240   0.23263   0.22508  -0.0590   0.1107   1.0000
  18.000   0.8369   0.23946   0.23192  -0.0597   0.1088   1.0000
  18.250   0.8348   0.23848   0.23088  -0.0636   0.1070   1.0000
  18.500   0.8401   0.24072   0.23311  -0.0659   0.1032   1.0000
  18.750   0.8497   0.24449   0.23690  -0.0672   0.0990   1.0000
  19.000   0.8697   0.25539   0.24785  -0.0660   0.0958   1.0000
  19.250   0.8674   0.25319   0.24559  -0.0701   0.0948   1.0000
  19.500   0.8710   0.25413   0.24650  -0.0733   0.0922   1.0000
  19.750   0.8782   0.25693   0.24931  -0.0753   0.0889   1.0000
  20.000   0.8876   0.26079   0.25318  -0.0766   0.0856   1.0000
   0.000  -0.0353   0.01876   0.00837  -0.0011   0.9993   1.0000
  -0.250  -0.0497   0.01838   0.00814  -0.0021   1.0000   1.0000
  -0.500  -0.0610   0.01803   0.00794  -0.0037   1.0000   1.0000
  -0.750  -0.0711   0.01771   0.00778  -0.0056   1.0000   1.0000
  -1.000  -0.0800   0.01741   0.00765  -0.0076   1.0000   1.0000
  -1.250  -0.0872   0.01712   0.00755  -0.0099   1.0000   1.0000
  -1.500  -0.0921   0.01685   0.00747  -0.0126   1.0000   1.0000
  -1.750  -0.0940   0.01659   0.00742  -0.0157   1.0000   1.0000
  -2.000  -0.0931   0.01633   0.00735  -0.0191   1.0000   1.0000
  -2.250  -0.0931   0.01612   0.00731  -0.0223   1.0000   1.0000
  -2.500  -0.1050   0.01608   0.00748  -0.0233   1.0000   1.0000
  -2.750  -0.1242   0.01621   0.00785  -0.0230   1.0000   1.0000
  -3.000  -0.1453   0.01650   0.00843  -0.0222   1.0000   1.0000
  -3.250  -0.1655   0.01699   0.00928  -0.0211   1.0000   1.0000
  -3.500  -0.3470   0.02092   0.01094  -0.0047   1.0000   0.2355
  -3.750  -0.3712   0.02319   0.01283  -0.0055   1.0000   0.1626
  -4.000  -0.3953   0.02497   0.01450  -0.0062   1.0000   0.1360
  -4.250  -0.4223   0.02715   0.01666  -0.0065   1.0000   0.1246
  -4.500  -0.4500   0.02940   0.01944  -0.0071   1.0000   0.1198
  -4.750  -0.4767   0.03205   0.02254  -0.0076   1.0000   0.1173
  -5.000  -0.5016   0.03473   0.02551  -0.0079   1.0000   0.1135
  -5.250  -0.5247   0.03795   0.02900  -0.0081   1.0000   0.1101
  -5.500  -0.5469   0.04144   0.03324  -0.0087   1.0000   0.1131
  -5.750  -0.5657   0.04629   0.03879  -0.0087   1.0000   0.1213
  -6.000  -0.5830   0.05187   0.04499  -0.0079   1.0000   0.1352
  -6.250  -0.5560   0.04631   0.04052  -0.0083   1.0000   0.1669
  -6.250  -0.6018   0.06047   0.05417  -0.0044   1.0000   0.1798
  -6.750  -0.5706   0.08124   0.07560   0.0332   1.0000   0.3802
  -7.000  -0.5762   0.08494   0.07923   0.0327   1.0000   0.3612
  -7.250  -0.5751   0.08794   0.08216   0.0327   1.0000   0.3413
  -7.500  -0.5841   0.09168   0.08586   0.0325   1.0000   0.3246
  -7.500  -0.5841   0.09168   0.08586   0.0325   1.0000   0.3246
  -7.600  -0.5950   0.09401   0.08824   0.0320   1.0000   0.3200
  -7.700  -0.5854   0.09447   0.08859   0.0327   1.0000   0.3117
  -8.000  -0.6030   0.09969   0.09384   0.0320   1.0000   0.2941
  -8.250  -0.6030   0.10299   0.09708   0.0328   1.0000   0.2807
  -8.250  -0.6030   0.10299   0.09708   0.0328   1.0000   0.2807
  -8.350  -0.6054   0.10486   0.09892   0.0331   1.0000   0.2772
  -8.450  -0.5969   0.10536   0.09937   0.0342   1.0000   0.2711
  -8.750  -0.6018   0.10981   0.10376   0.0351   1.0000   0.2574
  -9.000  -0.6095   0.11400   0.10792   0.0356   1.0000   0.2474
  -9.250  -0.6249   0.11890   0.11282   0.0351   1.0000   0.2356
  -9.500  -0.6384   0.12365   0.11757   0.0347   1.0000   0.2222
  -9.750  -0.6188   0.12485   0.11865   0.0386   1.0000   0.2160
 -10.000  -0.6296   0.12941   0.12319   0.0388   1.0000   0.2062
 -10.250  -0.6523   0.13558   0.12940   0.0375   1.0000   0.1942
 -10.500  -0.6331   0.13635   0.13005   0.0419   1.0000   0.1897
 -10.750  -0.6624   0.14376   0.13753   0.0399   1.0000   0.1802
 -11.000  -0.6442   0.14427   0.13792   0.0444   1.0000   0.1770
 -11.250  -0.6522   0.14824   0.14189   0.0452   1.0000   0.1690
 -11.500  -0.6606   0.15314   0.14682   0.0463   1.0000   0.1650
 -11.750  -0.6569   0.15527   0.14889   0.0491   1.0000   0.1592
 -12.000  -0.6848   0.16353   0.15721   0.0474   1.0000   0.1522
 -12.250  -0.6717   0.16373   0.15732   0.0517   1.0000   0.1499
 -12.500  -0.6744   0.16663   0.16020   0.0537   1.0000   0.1441
 -12.750  -0.7013   0.17543   0.16905   0.0523   1.0000   0.1383
 -13.000  -0.6908   0.17534   0.16887   0.0564   1.0000   0.1365
 -13.250  -0.6927   0.17775   0.17126   0.0589   1.0000   0.1313
 -13.500  -0.7203   0.18726   0.18082   0.0572   1.0000   0.1245
 -13.750  -0.7115   0.18672   0.18020   0.0614   1.0000   0.1231
 -14.000  -0.7131   0.18863   0.18208   0.0642   1.0000   0.1184
 -14.250  -0.7272   0.19388   0.18736   0.0646   1.0000   0.1127
 -14.500  -0.7404   0.20036   0.19382   0.0655   1.0000   0.1104
 -14.750  -0.7375   0.20034   0.19375   0.0692   1.0000   0.1085
 -15.000  -0.7428   0.20292   0.19631   0.0717   1.0000   0.1047
 -15.250  -0.7524   0.20678   0.20017   0.0732   1.0000   0.1009
 -15.500  -0.7796   0.21915   0.21265   0.0716   1.0000   0.0972
 -15.750  -0.7756   0.21770   0.21114   0.0756   1.0000   0.0966
 -16.000  -0.7766   0.21789   0.21129   0.0792   1.0000   0.0948
 -16.250  -0.7831   0.22044   0.21381   0.0817   1.0000   0.0916
 -16.500  -0.7920   0.22390   0.21728   0.0836   1.0000   0.0885
 -16.750  -0.8042   0.22899   0.22239   0.0845   1.0000   0.0855
 -17.000  -0.8233   0.23967   0.23309   0.0843   1.0000   0.0836
 -17.250  -0.8233   0.23821   0.23158   0.0882   1.0000   0.0830
 -17.500  -0.8267   0.23835   0.23168   0.0917   1.0000   0.0813
 -17.750  -0.8341   0.24079   0.23411   0.0944   1.0000   0.0784
 -18.000  -0.8431   0.24409   0.23741   0.0964   1.0000   0.0754
 -18.250  -0.8544   0.24879   0.24213   0.0976   1.0000   0.0724
 -18.500  -0.8739   0.26154   0.25490   0.0969   1.0000   0.0703
 -18.750  -0.8755   0.25961   0.25293   0.1007   1.0000   0.0699
 -19.000  -0.8797   0.25921   0.25250   0.1043   1.0000   0.0690
 -19.250  -0.8869   0.26090   0.25418   0.1073   1.0000   0.0673
 -19.500  -0.8953   0.26366   0.25693   0.1098   1.0000   0.0653
 -19.750  -0.9041   0.26678   0.26006   0.1120   1.0000   0.0632
 -20.000  -0.9134   0.27016   0.26350   0.1141   1.0000   0.0613
