  
       XFOIL         Version 6.99
  
 Calculated polar for: LA2573A                                         
  
 1 1 Reynolds number fixed          Mach number fixed         
  
 xtrf =   1.000 (top)        1.000 (bottom)  
 Mach =   0.000     Re =     0.050 e 6     Ncrit =   9.000
  
   alpha    CL        CD       CDp       CM     Top_Xtr  Bot_Xtr
  ------ -------- --------- --------- -------- -------- --------
  -0.250   0.0763   0.04776   0.03736  -0.0425   0.7034   0.2201
   0.250   0.2790   0.04809   0.04003  -0.0691   0.6995   1.0000
   0.250   0.2790   0.04809   0.04003  -0.0691   0.6995   1.0000
   0.350   0.2869   0.04879   0.04063  -0.0691   0.7017   1.0000
   1.250  -0.1729   0.04723   0.03655  -0.0028   0.9846   0.1939
   1.350  -0.1524   0.04799   0.03733  -0.0051   0.9769   0.1994
   1.450  -0.1308   0.04910   0.03839  -0.0074   0.9708   0.2062
   1.500  -0.1219   0.04934   0.03859  -0.0082   0.9637   0.2097
   1.600  -0.1019   0.05019   0.03957  -0.0103   0.9575   0.2195
   1.700  -0.0846   0.05074   0.04013  -0.0118   0.9456   0.2310
   2.000   0.0187   0.05177   0.04373  -0.0256   0.9278   1.0000
   1.850  -0.0607   0.05151   0.04108  -0.0137   0.9311   0.2550
   1.950  -0.0423   0.05219   0.04215  -0.0153   0.9262   0.2977
   2.250   0.0539   0.05390   0.04542  -0.0279   0.8977   1.0000
   2.500   0.0906   0.05653   0.04775  -0.0306   0.8751   1.0000
   2.250   0.0539   0.05390   0.04542  -0.0279   0.8977   1.0000
   2.350   0.0741   0.05557   0.04693  -0.0300   0.8918   1.0000
   2.450   0.0805   0.05571   0.04699  -0.0296   0.8780   1.0000
   2.750   0.1255   0.05938   0.05035  -0.0328   0.8549   1.0000
   3.000   0.1368   0.05990   0.05072  -0.0310   0.8278   1.0000
   3.250   0.1589   0.06171   0.05237  -0.0310   0.8088   1.0000
   3.000   0.1368   0.05990   0.05072  -0.0310   0.8278   1.0000
   3.100   0.1512   0.06097   0.05171  -0.0319   0.8211   1.0000
   3.500   0.1799   0.06355   0.05407  -0.0310   0.7913   1.0000
   3.750   0.2044   0.06583   0.05621  -0.0315   0.7763   1.0000
   4.000   0.2354   0.06857   0.05882  -0.0328   0.7612   1.0000
   4.250   0.2451   0.06947   0.05963  -0.0311   0.7439   1.0000
   4.500   0.2544   0.07063   0.06070  -0.0295   0.7282   1.0000
   4.750   0.2684   0.07235   0.06234  -0.0287   0.7143   1.0000
   5.000   0.3040   0.07586   0.06577  -0.0305   0.7036   1.0000
   5.250   0.3046   0.07623   0.06608  -0.0281   0.6880   1.0000
   5.500   0.3140   0.07782   0.06761  -0.0270   0.6759   1.0000
   5.750   0.3460   0.08110   0.07084  -0.0282   0.6655   1.0000
   5.750   0.3460   0.08110   0.07084  -0.0282   0.6655   1.0000
   5.850   0.3413   0.08122   0.07094  -0.0270   0.6611   1.0000
   5.950   0.3395   0.08111   0.07081  -0.0259   0.6536   1.0000
   6.750   0.3836   0.08768   0.07728  -0.0246   0.6195   1.0000
   7.000   0.4066   0.09030   0.07989  -0.0249   0.6084   1.0000
   7.250   0.4067   0.09157   0.08114  -0.0236   0.5977   1.0000
   7.500   0.4348   0.09486   0.08443  -0.0243   0.5880   1.0000
   7.750   0.4303   0.09577   0.08533  -0.0229   0.5770   1.0000
   8.000   0.4583   0.09924   0.08881  -0.0236   0.5683   1.0000
   8.250   0.4530   0.10024   0.08980  -0.0224   0.5580   1.0000
   8.000   0.4583   0.09924   0.08881  -0.0236   0.5683   1.0000
   8.100   0.4785   0.10215   0.09173  -0.0247   0.5665   1.0000
   8.200   0.4534   0.10013   0.08969  -0.0226   0.5609   1.0000
   8.500   0.4796   0.10367   0.09326  -0.0230   0.5487   1.0000
   8.750   0.4754   0.10498   0.09457  -0.0221   0.5397   1.0000
   8.500   0.4796   0.10367   0.09326  -0.0230   0.5487   1.0000
   8.600   0.4988   0.10649   0.09610  -0.0239   0.5469   1.0000
   8.700   0.4798   0.10527   0.09487  -0.0226   0.5432   1.0000
   9.250   0.4995   0.11021   0.09984  -0.0221   0.5223   1.0000
   9.500   0.5126   0.11245   0.10213  -0.0220   0.5110   1.0000
   9.750   0.5338   0.11688   0.10659  -0.0228   0.5054   1.0000
  10.000   0.5275   0.11720   0.10694  -0.0219   0.4929   1.0000
  10.250   0.5731   0.12441   0.11423  -0.0236   0.4868   1.0000
  10.500   0.5428   0.12231   0.11212  -0.0222   0.4755   1.0000
  10.750   0.5784   0.12788   0.11778  -0.0231   0.4679   1.0000
  11.000   0.5594   0.12784   0.11775  -0.0227   0.4586   1.0000
  11.250   0.5866   0.13226   0.12224  -0.0232   0.4492   1.0000
  11.500   0.5774   0.13376   0.12377  -0.0234   0.4415   1.0000
  11.750   0.5976   0.13738   0.12746  -0.0237   0.4309   1.0000
  12.000   0.5951   0.13984   0.12995  -0.0243   0.4239   1.0000
  12.250   0.6144   0.14345   0.13365  -0.0245   0.4122   1.0000
  12.500   0.6089   0.14561   0.13584  -0.0253   0.4047   1.0000
  12.750   0.6436   0.15177   0.14212  -0.0256   0.3930   1.0000
  12.500   0.6089   0.14561   0.13584  -0.0253   0.4047   1.0000
  12.600   0.6117   0.14649   0.13675  -0.0254   0.3994   1.0000
  12.700   0.6249   0.14859   0.13889  -0.0255   0.3951   1.0000
  13.000   0.6226   0.15150   0.14184  -0.0265   0.3847   1.0000
  13.250   0.6455   0.15672   0.14715  -0.0269   0.3753   1.0000
  13.500   0.6421   0.15801   0.14847  -0.0277   0.3640   1.0000
  13.750   0.6463   0.16135   0.15187  -0.0287   0.3561   1.0000
  14.000   0.6701   0.16654   0.15714  -0.0289   0.3447   1.0000
  14.250   0.6607   0.16746   0.15808  -0.0303   0.3354   1.0000
  14.500   0.6709   0.17145   0.16212  -0.0312   0.3277   1.0000
  14.750   0.6957   0.17676   0.16750  -0.0312   0.3155   1.0000
  15.000   0.6812   0.17741   0.16814  -0.0334   0.3097   1.0000
  15.250   0.7051   0.18296   0.17377  -0.0335   0.3008   1.0000
  15.500   0.6956   0.18397   0.17477  -0.0357   0.2945   1.0000
  15.750   0.7214   0.19002   0.18089  -0.0356   0.2865   1.0000
  16.000   0.7107   0.19074   0.18159  -0.0382   0.2818   1.0000
  16.250   0.7257   0.19460   0.18551  -0.0387   0.2741   1.0000
  16.500   0.7315   0.19835   0.18926  -0.0403   0.2708   1.0000
  16.750   0.7336   0.20036   0.19128  -0.0421   0.2635   1.0000
  17.000   0.7570   0.20653   0.19753  -0.0421   0.2584   1.0000
  17.250   0.7508   0.20753   0.19851  -0.0448   0.2554   1.0000
  17.500   0.7574   0.21005   0.20104  -0.0463   0.2484   1.0000
  17.750   0.7816   0.21697   0.20804  -0.0462   0.2440   1.0000
  18.000   0.7747   0.21721   0.20824  -0.0492   0.2415   1.0000
  18.250   0.7802   0.21946   0.21051  -0.0510   0.2350   1.0000
  18.500   0.8013   0.22549   0.21661  -0.0509   0.2302   1.0000
  18.750   0.7999   0.22686   0.21795  -0.0536   0.2279   1.0000
  19.000   0.8034   0.22872   0.21983  -0.0558   0.2224   1.0000
  19.250   0.8177   0.23281   0.22395  -0.0565   0.2175   1.0000
  19.500   0.8298   0.23782   0.22899  -0.0577   0.2151   1.0000
  19.750   0.8275   0.23791   0.22906  -0.0608   0.2101   1.0000
  20.000   0.8382   0.24112   0.23231  -0.0620   0.2051   1.0000
  -0.250   0.0239   0.04874   0.03825  -0.0386   0.7252   0.2040
  -0.500   0.0522   0.04713   0.03663  -0.0416   0.6998   0.2056
  -0.750   0.0282   0.04639   0.03594  -0.0405   0.6959   0.1962
  -1.000   0.0102   0.04588   0.03531  -0.0395   0.6916   0.1898
  -1.250  -0.0026   0.04508   0.03468  -0.0394   0.6893   0.1854
  -1.500  -0.0190   0.04457   0.03427  -0.0390   0.6881   0.1806
  -1.750  -0.0379   0.04429   0.03408  -0.0383   0.6872   0.1777
  -2.000  -0.0601   0.04434   0.03427  -0.0377   0.6877   0.1760
  -2.250  -0.0831   0.04470   0.03474  -0.0375   0.6896   0.1737
  -2.500  -0.1053   0.04543   0.03557  -0.0371   0.6916   0.1715
  -2.750  -0.1273   0.04624   0.03654  -0.0367   0.6933   0.1707
  -3.000  -0.1505   0.04653   0.03732  -0.0364   0.6949   0.1736
  -3.250  -0.1733   0.04770   0.03904  -0.0360   0.6970   0.1802
  -3.500  -0.1957   0.04926   0.04087  -0.0352   0.6998   0.1855
  -3.750  -0.2194   0.05132   0.04298  -0.0337   0.7027   0.1890
  -4.000  -0.2394   0.05324   0.04566  -0.0338   0.7050   0.2059
  -3.750  -0.2194   0.05132   0.04298  -0.0337   0.7027   0.1890
  -3.850  -0.2275   0.05177   0.04407  -0.0337   0.7034   0.2004
  -3.950  -0.2353   0.05273   0.04513  -0.0338   0.7045   0.2044
  -4.250  -0.2625   0.05705   0.05014  -0.0319   0.7073   0.2480
  -4.750  -0.0427   0.06994   0.06422   0.0076   0.6999   0.7617
  -5.250  -0.1324   0.07575   0.07008   0.0100   0.7076   0.6306
  -5.500  -0.1696   0.07825   0.07260   0.0088   0.7121   0.5699
  -6.500  -0.2904   0.08968   0.08404   0.0045   0.7305   0.4144
  -6.750  -0.2771   0.09038   0.08464   0.0045   0.7333   0.3860
  -7.000  -0.2934   0.09296   0.08717   0.0045   0.7380   0.3606
  -7.250  -0.3064   0.09564   0.08982   0.0047   0.7427   0.3396
  -7.500  -0.3131   0.09826   0.09242   0.0049   0.7473   0.3235
  -7.750  -0.3429   0.10258   0.09676   0.0043   0.7541   0.3101
  -8.000  -0.3512   0.10480   0.09893   0.0054   0.7596   0.2936
  -8.250  -0.3414   0.10677   0.10085   0.0074   0.7632   0.2818
  -8.500  -0.3934   0.11343   0.10760   0.0048   0.7726   0.2703
  -8.750  -0.3581   0.11257   0.10662   0.0094   0.7749   0.2598
  -8.500  -0.3934   0.11342   0.10760   0.0048   0.7726   0.2703
  -8.600  -0.3677   0.11220   0.10630   0.0076   0.7725   0.2683
  -8.700  -0.3566   0.11208   0.10614   0.0092   0.7738   0.2626
  -9.000  -0.4060   0.11933   0.11349   0.0070   0.7862   0.2496
  -9.250  -0.3738   0.11849   0.11255   0.0116   0.7892   0.2410
  -9.500  -0.4190   0.12481   0.11900   0.0091   0.8035   0.2302
  -9.750  -0.3933   0.12495   0.11906   0.0135   0.8081   0.2250
  -9.500  -0.4190   0.12481   0.11900   0.0091   0.8035   0.2302
  -9.600  -0.4145   0.12589   0.12005   0.0102   0.8061   0.2289
  -9.700  -0.3985   0.12508   0.11920   0.0126   0.8072   0.2270
 -10.000  -0.4005   0.12743   0.12158   0.0147   0.8196   0.2155
  -9.750  -0.3933   0.12495   0.11906   0.0135   0.8081   0.2250
  -9.850  -0.3920   0.12559   0.11970   0.0144   0.8119   0.2207
  -9.950  -0.3971   0.12678   0.12090   0.0148   0.8169   0.2170
 -10.250  -0.4464   0.13552   0.12987   0.0115   0.8422   0.2094
 -10.500  -0.4140   0.13372   0.12802   0.0168   0.8496   0.2051
 -11.000  -0.4533   0.14161   0.13624   0.0187   1.0000   0.1912
 -11.250  -0.4580   0.14525   0.13975   0.0234   1.0000   0.1883
 -11.500  -0.4540   0.14638   0.14077   0.0284   1.0000   0.1819
 -11.750  -0.4731   0.15058   0.14486   0.0313   1.0000   0.1754
 -12.000  -0.5186   0.16079   0.15493   0.0318   1.0000   0.1705
 -12.250  -0.4974   0.15886   0.15288   0.0370   1.0000   0.1678
 -12.500  -0.5009   0.16093   0.15484   0.0401   1.0000   0.1621
 -12.750  -0.5162   0.16491   0.15871   0.0416   1.0000   0.1569
 -13.000  -0.5659   0.17754   0.17129   0.0395   1.0000   0.1527
 -13.250  -0.5477   0.17550   0.16911   0.0441   1.0000   0.1517
 -13.500  -0.5402   0.17499   0.16852   0.0478   1.0000   0.1485
 -13.750  -0.5465   0.17750   0.17097   0.0499   1.0000   0.1442
 -14.000  -0.5581   0.18102   0.17442   0.0512   1.0000   0.1405
 -14.250  -0.5793   0.18722   0.18057   0.0514   1.0000   0.1373
 -14.500  -0.5996   0.19495   0.18824   0.0519   1.0000   0.1355
 -14.750  -0.5879   0.19223   0.18544   0.0560   1.0000   0.1337
 -15.000  -0.5908   0.19348   0.18664   0.0587   1.0000   0.1299
 -15.250  -0.6003   0.19646   0.18958   0.0603   1.0000   0.1262
 -15.500  -0.6139   0.20064   0.19373   0.0613   1.0000   0.1231
 -15.750  -0.6438   0.21156   0.20465   0.0603   1.0000   0.1207
 -16.000  -0.6435   0.21223   0.20523   0.0632   1.0000   0.1199
 -16.250  -0.6396   0.21046   0.20342   0.0669   1.0000   0.1184
 -16.000  -0.6435   0.21223   0.20523   0.0632   1.0000   0.1199
 -16.100  -0.6407   0.21113   0.20411   0.0648   1.0000   0.1195
 -16.200  -0.6396   0.21054   0.20350   0.0662   1.0000   0.1188
 -16.500  -0.6450   0.21201   0.20494   0.0695   1.0000   0.1156
 -16.750  -0.6539   0.21476   0.20766   0.0714   1.0000   0.1129
 -17.000  -0.6647   0.21814   0.21101   0.0728   1.0000   0.1102
 -17.250  -0.6798   0.22346   0.21631   0.0734   1.0000   0.1080
 -17.500  -0.7008   0.23311   0.22594   0.0735   1.0000   0.1065
 -17.750  -0.6961   0.22971   0.22249   0.0776   1.0000   0.1056
 -18.000  -0.7001   0.23013   0.22288   0.0806   1.0000   0.1033
 -18.250  -0.7085   0.23256   0.22528   0.0827   1.0000   0.1010
 -18.500  -0.7182   0.23553   0.22824   0.0845   1.0000   0.0988
 -18.750  -0.7291   0.23911   0.23181   0.0860   1.0000   0.0969
 -19.000  -0.7439   0.24511   0.23781   0.0866   1.0000   0.0953
 -19.250  -0.7593   0.25275   0.24542   0.0874   1.0000   0.0944
 -19.500  -0.7588   0.25006   0.24270   0.0912   1.0000   0.0937
 -19.750  -0.7639   0.25045   0.24306   0.0943   1.0000   0.0919
 -20.000  -0.7723   0.25274   0.24534   0.0966   1.0000   0.0897
