  
       XFOIL         Version 6.99
  
 Calculated polar for: E186  (10.27%)                                  
  
 1 1 Reynolds number fixed          Mach number fixed         
  
 xtrf =   1.000 (top)        1.000 (bottom)  
 Mach =   0.000     Re =     0.050 e 6     Ncrit =   9.000
  
   alpha    CL        CD       CDp       CM     Top_Xtr  Bot_Xtr
  ------ -------- --------- --------- -------- -------- --------
   0.000   0.2654   0.02289   0.01274  -0.0509   0.8606   1.0000
   0.250   0.2854   0.02353   0.01334  -0.0504   0.8492   1.0000
   0.500   0.3056   0.02421   0.01398  -0.0499   0.8386   1.0000
   0.750   0.3270   0.02486   0.01461  -0.0492   0.8286   1.0000
   1.000   0.3457   0.02563   0.01537  -0.0485   0.8183   1.0000
   1.250   0.3630   0.02649   0.01623  -0.0477   0.8081   1.0000
   1.500   0.3827   0.02730   0.01704  -0.0470   0.7988   1.0000
   1.750   0.4016   0.02814   0.01791  -0.0461   0.7889   1.0000
   2.000   0.4164   0.02919   0.01901  -0.0451   0.7788   1.0000
   2.250   0.4343   0.03015   0.01999  -0.0441   0.7691   1.0000
   2.500   0.4541   0.03103   0.02093  -0.0431   0.7595   1.0000
   2.750   0.4665   0.03224   0.02218  -0.0419   0.7486   1.0000
   3.000   0.4812   0.03339   0.02339  -0.0407   0.7379   1.0000
   3.250   0.5000   0.03437   0.02447  -0.0394   0.7273   1.0000
   3.500   0.5201   0.03526   0.02546  -0.0381   0.7159   1.0000
   3.750   0.5318   0.03656   0.02683  -0.0366   0.7033   1.0000
   4.000   0.5455   0.03776   0.02813  -0.0350   0.6901   1.0000
   4.250   0.5605   0.03890   0.02941  -0.0334   0.6764   1.0000
   4.500   0.5768   0.03995   0.03058  -0.0316   0.6619   1.0000
   4.750   0.5954   0.04082   0.03157  -0.0297   0.6464   1.0000
   5.000   0.6172   0.04138   0.03229  -0.0274   0.6302   1.0000
   5.250   0.6320   0.04232   0.03338  -0.0252   0.6121   1.0000
   5.500   0.6464   0.04321   0.03446  -0.0228   0.5924   1.0000
   5.750   0.6750   0.04261   0.03407  -0.0193   0.5729   1.0000
   6.000   0.6898   0.04313   0.03478  -0.0164   0.5500   1.0000
   6.250   0.7240   0.04089   0.03277  -0.0111   0.5289   1.0000
   6.500   0.7457   0.03981   0.03195  -0.0068   0.5024   1.0000
   6.750   0.7742   0.03707   0.02942  -0.0011   0.4741   1.0000
   7.000   0.8027   0.03366   0.02616   0.0049   0.4387   1.0000
   7.250   0.8301   0.02968   0.02209   0.0114   0.3875   1.0000
   7.500   0.8458   0.02833   0.02027   0.0161   0.3070   1.0000
   7.750   0.8534   0.02990   0.02101   0.0194   0.2324   1.0000
   8.000   0.8599   0.03262   0.02320   0.0219   0.1781   1.0000
   8.250   0.8686   0.03534   0.02569   0.0240   0.1406   1.0000
   8.500   0.8835   0.03811   0.02832   0.0259   0.1169   1.0000
   8.750   0.9017   0.04115   0.03144   0.0275   0.1034   1.0000
   9.000   0.9203   0.04430   0.03456   0.0288   0.0942   1.0000
   9.250   0.9288   0.04743   0.03825   0.0304   0.0893   1.0000
   9.500   0.9404   0.05074   0.04178   0.0317   0.0853   1.0000
   9.750   0.9501   0.05463   0.04590   0.0329   0.0836   1.0000
  10.000   0.9528   0.05879   0.05037   0.0341   0.0831   1.0000
  10.000   0.9528   0.05879   0.05037   0.0341   0.0831   1.0000
  10.100   0.9516   0.06044   0.05216   0.0346   0.0831   1.0000
  10.200   0.9485   0.06204   0.05391   0.0351   0.0832   1.0000
  10.500   0.9196   0.06686   0.05926   0.0364   0.0847   1.0000
  10.750   0.8840   0.07109   0.06373   0.0367   0.0866   1.0000
  11.000   0.8516   0.07650   0.06929   0.0346   0.0883   1.0000
  11.250   0.8221   0.08307   0.07593   0.0309   0.0903   1.0000
  11.500   0.7961   0.09045   0.08333   0.0266   0.0923   1.0000
  11.750   0.7798   0.09755   0.09041   0.0232   0.0939   1.0000
  12.000   0.7690   0.10443   0.09731   0.0202   0.0956   1.0000
  12.250   0.5388   0.13019   0.12311   0.0018   0.2067   1.0000
  12.500   0.5535   0.13174   0.12467   0.0042   0.1753   1.0000
  12.750   0.6524   0.15223   0.14459  -0.0150   0.2442   1.0000
  13.000   0.6497   0.15526   0.14760  -0.0161   0.2368   1.0000
  13.250   0.6758   0.16258   0.15498  -0.0154   0.2321   1.0000
  13.500   0.6574   0.16357   0.15587  -0.0180   0.2290   1.0000
  13.750   0.6705   0.16801   0.16035  -0.0178   0.2195   1.0000
  14.000   0.6671   0.17114   0.16342  -0.0195   0.2155   1.0000
  14.250   0.6831   0.17597   0.16829  -0.0191   0.2051   1.0000
  14.500   0.6769   0.17836   0.17061  -0.0213   0.2016   1.0000
  14.750   0.6815   0.18149   0.17377  -0.0223   0.1939   1.0000
  15.000   0.7019   0.18845   0.18077  -0.0218   0.1900   1.0000
  15.250   0.6895   0.18855   0.18079  -0.0249   0.1852   1.0000
  15.500   0.6997   0.19253   0.18478  -0.0254   0.1791   1.0000
  15.750   0.7137   0.19849   0.19075  -0.0257   0.1759   1.0000
  16.000   0.7066   0.19900   0.19120  -0.0286   0.1707   1.0000
  16.250   0.7204   0.20367   0.19590  -0.0287   0.1643   1.0000
  16.500   0.7251   0.20742   0.19961  -0.0303   0.1612   1.0000
  16.750   0.7258   0.20918   0.20135  -0.0325   0.1549   1.0000
  17.000   0.7512   0.21807   0.21031  -0.0309   0.1488   1.0000
  17.250   0.7415   0.21673   0.20889  -0.0348   0.1466   1.0000
  17.500   0.7458   0.21916   0.21130  -0.0366   0.1408   1.0000
  17.750   0.7631   0.22547   0.21767  -0.0361   0.1361   1.0000
  18.000   0.7677   0.22883   0.22103  -0.0381   0.1346   1.0000
  18.250   0.7662   0.22932   0.22143  -0.0412   0.1307   1.0000
  18.500   0.7739   0.23248   0.22463  -0.0427   0.1262   1.0000
  18.750   0.7907   0.23926   0.23147  -0.0422   0.1225   1.0000
  19.000   0.7951   0.24238   0.23455  -0.0443   0.1211   1.0000
  19.250   0.7948   0.24253   0.23465  -0.0477   0.1180   1.0000
  19.500   0.8017   0.24539   0.23752  -0.0494   0.1140   1.0000
  19.750   0.8127   0.24970   0.24185  -0.0502   0.1104   1.0000
  20.000   0.8298   0.25892   0.25111  -0.0498   0.1082   1.0000
   0.000   0.2654   0.02289   0.01274  -0.0509   0.8606   1.0000
  -0.250   0.2455   0.02230   0.01220  -0.0514   0.8725   1.0000
  -0.500   0.2219   0.02179   0.01178  -0.0515   0.8844   1.0000
  -0.750   0.1974   0.02132   0.01140  -0.0513   0.8972   1.0000
  -1.000   0.1701   0.02091   0.01109  -0.0505   0.9106   1.0000
  -1.250   0.1381   0.02057   0.01089  -0.0488   0.9250   1.0000
  -1.500   0.0990   0.02034   0.01084  -0.0455   0.9399   1.0000
  -1.750   0.0508   0.02023   0.01092  -0.0405   0.9550   1.0000
  -2.000  -0.0070   0.02019   0.01116  -0.0334   0.9699   1.0000
  -2.250  -0.0684   0.02016   0.01144  -0.0254   0.9852   1.0000
  -2.500  -0.1069   0.02004   0.01162  -0.0208   1.0000   1.0000
  -2.750  -0.0884   0.01962   0.01131  -0.0255   1.0000   1.0000
  -3.000  -0.0798   0.01935   0.01114  -0.0280   1.0000   1.0000
  -3.250  -0.0944   0.01959   0.01158  -0.0264   1.0000   1.0000
  -3.500  -0.1273   0.02044   0.01272  -0.0214   1.0000   0.9936
  -3.750  -0.4344   0.02251   0.01310   0.0107   1.0000   0.2436
  -4.000  -0.4529   0.02446   0.01450   0.0095   1.0000   0.1691
  -4.250  -0.4720   0.02600   0.01599   0.0082   1.0000   0.1456
  -4.500  -0.4877   0.02752   0.01752   0.0065   1.0000   0.1349
  -4.750  -0.5027   0.02900   0.01901   0.0049   1.0000   0.1258
  -5.000  -0.5240   0.03091   0.02124   0.0041   1.0000   0.1180
  -5.250  -0.5493   0.03325   0.02378   0.0039   1.0000   0.1133
  -5.500  -0.5746   0.03618   0.02701   0.0037   1.0000   0.1117
  -5.750  -0.5960   0.03939   0.03084   0.0027   1.0000   0.1128
  -6.000  -0.6133   0.04335   0.03551   0.0015   1.0000   0.1167
  -6.250  -0.6291   0.04753   0.04013   0.0007   1.0000   0.1206
  -6.500  -0.6447   0.05176   0.04462   0.0002   1.0000   0.1229
  -6.500  -0.6447   0.05176   0.04462   0.0002   1.0000   0.1229
  -6.600  -0.6512   0.05353   0.04644   0.0000   1.0000   0.1236
  -6.700  -0.6580   0.05528   0.04828  -0.0001   1.0000   0.1247
  -6.750  -0.6488   0.05737   0.05095  -0.0000   1.0000   0.1340
  -6.850  -0.6546   0.05929   0.05290  -0.0000   1.0000   0.1362
  -6.950  -0.6632   0.06127   0.05482  -0.0001   1.0000   0.1377
  -7.000  -0.6473   0.06495   0.05908   0.0022   1.0000   0.1606
  -7.500  -0.5600   0.08837   0.08276   0.0347   1.0000   0.3707
  -7.750  -0.5634   0.09194   0.08627   0.0348   1.0000   0.3565
  -7.850  -0.5831   0.09485   0.08923   0.0344   1.0000   0.3537
  -7.950  -0.5623   0.09465   0.08891   0.0351   1.0000   0.3441
  -8.250  -0.5718   0.09929   0.09350   0.0352   1.0000   0.3277
  -8.350  -0.5816   0.10158   0.09579   0.0349   1.0000   0.3235
  -8.450  -0.5707   0.10202   0.09617   0.0356   1.0000   0.3156
  -8.750  -0.6040   0.10839   0.10262   0.0337   1.0000   0.2956
  -9.000  -0.6083   0.11211   0.10628   0.0339   1.0000   0.2812
  -9.250  -0.5920   0.11398   0.10804   0.0360   1.0000   0.2697
  -9.500  -0.5899   0.11741   0.11141   0.0372   1.0000   0.2585
  -9.750  -0.5984   0.12173   0.11569   0.0377   1.0000   0.2497
 -10.000  -0.6216   0.12720   0.12121   0.0367   1.0000   0.2384
 -10.250  -0.6018   0.12880   0.12268   0.0400   1.0000   0.2306
 -10.500  -0.6209   0.13437   0.12826   0.0396   1.0000   0.2228
 -10.750  -0.6125   0.13655   0.13037   0.0420   1.0000   0.2140
 -11.000  -0.6252   0.14162   0.13543   0.0423   1.0000   0.2080
 -11.250  -0.6222   0.14420   0.13796   0.0443   1.0000   0.1994
 -11.500  -0.6369   0.14968   0.14343   0.0446   1.0000   0.1940
 -11.750  -0.6304   0.15166   0.14536   0.0472   1.0000   0.1866
 -12.000  -0.6492   0.15767   0.15138   0.0469   1.0000   0.1800
 -12.250  -0.6406   0.15911   0.15275   0.0500   1.0000   0.1734
 -12.500  -0.6635   0.16590   0.15960   0.0492   1.0000   0.1661
 -12.750  -0.6527   0.16666   0.16029   0.0529   1.0000   0.1618
 -13.000  -0.6717   0.17234   0.16600   0.0525   1.0000   0.1536
 -13.250  -0.6731   0.17577   0.16937   0.0548   1.0000   0.1511
 -13.500  -0.6706   0.17743   0.17099   0.0577   1.0000   0.1459
 -13.750  -0.6855   0.18246   0.17604   0.0580   1.0000   0.1402
 -14.000  -0.6970   0.18804   0.18159   0.0592   1.0000   0.1376
 -14.250  -0.6919   0.18848   0.18198   0.0626   1.0000   0.1343
 -14.500  -0.6991   0.19178   0.18526   0.0644   1.0000   0.1292
 -14.750  -0.7304   0.20293   0.19647   0.0626   1.0000   0.1242
 -15.000  -0.7213   0.20154   0.19501   0.0667   1.0000   0.1233
 -15.250  -0.7209   0.20242   0.19584   0.0700   1.0000   0.1198
 -15.500  -0.7291   0.20573   0.19914   0.0717   1.0000   0.1152
 -15.750  -0.7573   0.21726   0.21072   0.0701   1.0000   0.1103
 -16.000  -0.7512   0.21546   0.20885   0.0742   1.0000   0.1094
 -16.250  -0.7526   0.21616   0.20951   0.0775   1.0000   0.1064
 -16.500  -0.7605   0.21920   0.21259   0.0795   1.0000   0.1019
 -16.750  -0.7748   0.22472   0.21813   0.0799   1.0000   0.0981
 -17.000  -0.7909   0.23301   0.22641   0.0804   1.0000   0.0963
 -17.250  -0.7895   0.23164   0.22499   0.0844   1.0000   0.0953
 -17.500  -0.7938   0.23285   0.22617   0.0875   1.0000   0.0928
 -17.750  -0.8016   0.23573   0.22904   0.0897   1.0000   0.0897
 -18.000  -0.8113   0.23929   0.23260   0.0914   1.0000   0.0869
 -18.250  -0.8250   0.24525   0.23859   0.0920   1.0000   0.0842
 -18.500  -0.8415   0.25491   0.24824   0.0923   1.0000   0.0828
 -18.750  -0.8420   0.25309   0.24638   0.0961   1.0000   0.0823
 -19.000  -0.8459   0.25311   0.24637   0.0997   1.0000   0.0808
 -19.250  -0.8531   0.25525   0.24849   0.1023   1.0000   0.0785
 -19.500  -0.8616   0.25818   0.25142   0.1045   1.0000   0.0761
 -19.750  -0.8710   0.26155   0.25479   0.1064   1.0000   0.0737
 -20.000  -0.8824   0.26649   0.25979   0.1075   1.0000   0.0713
