  
       XFOIL         Version 6.99
  
 Calculated polar for: S8035 for RC aerobatic  14% thick               
  
 1 1 Reynolds number fixed          Mach number fixed         
  
 xtrf =   1.000 (top)        1.000 (bottom)  
 Mach =   0.000     Re =     0.050 e 6     Ncrit =   9.000
  
   alpha    CL        CD       CDp       CM     Top_Xtr  Bot_Xtr
  ------ -------- --------- --------- -------- -------- --------
   0.000  -0.0000   0.03021   0.02119  -0.0000   1.0000   1.0000
   0.250   0.0841   0.03006   0.02104  -0.0137   0.9736   1.0000
   0.500   0.1555   0.02971   0.02072  -0.0243   0.9480   1.0000
   0.750   0.2326   0.02917   0.02024  -0.0349   0.9245   1.0000
   1.000   0.3037   0.02849   0.01963  -0.0437   0.8996   1.0000
   1.250   0.3829   0.02743   0.01866  -0.0529   0.8770   1.0000
   1.500   0.4227   0.02698   0.01827  -0.0552   0.8489   1.0000
   1.750   0.4573   0.02658   0.01789  -0.0562   0.8217   1.0000
   2.000   0.4865   0.02621   0.01753  -0.0557   0.7957   1.0000
   2.250   0.5019   0.02624   0.01757  -0.0534   0.7684   1.0000
   2.500   0.5237   0.02600   0.01729  -0.0514   0.7445   1.0000
   2.750   0.5348   0.02620   0.01749  -0.0484   0.7182   1.0000
   3.000   0.5537   0.02605   0.01731  -0.0458   0.6955   1.0000
   3.250   0.5646   0.02634   0.01760  -0.0428   0.6703   1.0000
   3.500   0.5817   0.02635   0.01755  -0.0400   0.6478   1.0000
   3.750   0.5947   0.02664   0.01783  -0.0371   0.6243   1.0000
   4.000   0.6099   0.02683   0.01799  -0.0343   0.6011   1.0000
   4.250   0.6276   0.02695   0.01802  -0.0316   0.5793   1.0000
   4.500   0.6395   0.02743   0.01851  -0.0287   0.5557   1.0000
   4.750   0.6572   0.02765   0.01866  -0.0261   0.5338   1.0000
   5.000   0.6723   0.02809   0.01906  -0.0234   0.5116   1.0000
   5.250   0.6866   0.02865   0.01961  -0.0207   0.4894   1.0000
   5.500   0.7051   0.02902   0.01989  -0.0184   0.4683   1.0000
   5.750   0.7212   0.02965   0.02049  -0.0159   0.4476   1.0000
   6.000   0.7346   0.03047   0.02133  -0.0133   0.4266   1.0000
   6.250   0.7511   0.03117   0.02198  -0.0110   0.4065   1.0000
   6.500   0.7696   0.03183   0.02257  -0.0089   0.3873   1.0000
   6.750   0.7880   0.03259   0.02324  -0.0068   0.3686   1.0000
   7.000   0.8010   0.03371   0.02442  -0.0043   0.3508   1.0000
   7.250   0.8146   0.03482   0.02557  -0.0019   0.3334   1.0000
   7.500   0.8289   0.03600   0.02679   0.0004   0.3173   1.0000
   7.750   0.8435   0.03722   0.02802   0.0026   0.3018   1.0000
   8.000   0.8595   0.03848   0.02929   0.0046   0.2874   1.0000
   8.250   0.8773   0.03967   0.03042   0.0064   0.2732   1.0000
   8.500   0.8774   0.04192   0.03301   0.0097   0.2621   1.0000
   8.750   0.8822   0.04409   0.03534   0.0124   0.2516   1.0000
   9.000   0.8997   0.04551   0.03672   0.0140   0.2400   1.0000
   9.250   0.8887   0.04873   0.04029   0.0176   0.2331   1.0000
   9.500   0.9011   0.05062   0.04222   0.0194   0.2236   1.0000
   9.750   0.8761   0.05480   0.04673   0.0231   0.2200   1.0000
  10.000   0.9017   0.05602   0.04786   0.0241   0.2095   1.0000
  10.250   0.8662   0.06101   0.05311   0.0275   0.2088   1.0000
  10.500   0.8239   0.06648   0.05869   0.0303   0.2095   1.0000
  10.750   0.7807   0.07320   0.06541   0.0305   0.2107   1.0000
  10.750   0.7807   0.07320   0.06541   0.0305   0.2107   1.0000
  11.950   0.5064   0.13332   0.12496  -0.0087   0.3434   1.0000
  12.250   0.5176   0.13805   0.12971  -0.0092   0.3340   1.0000
  12.000   0.5109   0.13416   0.12581  -0.0086   0.3412   1.0000
  12.100   0.5385   0.13817   0.12992  -0.0085   0.3368   1.0000
  12.200   0.5234   0.13805   0.12973  -0.0090   0.3354   1.0000
  12.500   0.5508   0.14406   0.13584  -0.0089   0.3209   1.0000
  12.250   0.5176   0.13805   0.12971  -0.0092   0.3340   1.0000
  12.350   0.5141   0.13865   0.13030  -0.0094   0.3289   1.0000
  12.450   0.5269   0.14060   0.13231  -0.0092   0.3234   1.0000
  12.750   0.5230   0.14405   0.13574  -0.0102   0.3145   1.0000
  12.500   0.5508   0.14406   0.13584  -0.0089   0.3209   1.0000
  12.600   0.5364   0.14385   0.13558  -0.0095   0.3199   1.0000
  12.700   0.5243   0.14368   0.13538  -0.0100   0.3167   1.0000
  13.000   0.5536   0.15029   0.14207  -0.0100   0.3046   1.0000
  12.750   0.5230   0.14404   0.13574  -0.0102   0.3145   1.0000
  12.850   0.5276   0.14539   0.13709  -0.0102   0.3100   1.0000
  12.950   0.5603   0.15041   0.14220  -0.0097   0.3050   1.0000
  13.250   0.5345   0.15058   0.14230  -0.0113   0.2961   1.0000
  13.500   0.5595   0.15659   0.14837  -0.0113   0.2885   1.0000
  13.750   0.5461   0.15729   0.14902  -0.0126   0.2798   1.0000
  14.000   0.5668   0.16285   0.15464  -0.0127   0.2724   1.0000
  14.250   0.5587   0.16388   0.15564  -0.0141   0.2633   1.0000
  14.500   0.5851   0.17072   0.16255  -0.0140   0.2572   1.0000
  14.750   0.5693   0.17051   0.16228  -0.0161   0.2500   1.0000
  15.000   0.6021   0.17833   0.17019  -0.0154   0.2417   1.0000
  15.250   0.5824   0.17715   0.16893  -0.0180   0.2360   1.0000
  15.500   0.5963   0.18118   0.17300  -0.0184   0.2288   1.0000
  15.750   0.6045   0.18553   0.17734  -0.0195   0.2249   1.0000
  16.000   0.6026   0.18676   0.17856  -0.0213   0.2170   1.0000
  16.250   0.6339   0.19559   0.18747  -0.0205   0.2108   1.0000
  16.500   0.6169   0.19366   0.18545  -0.0237   0.2069   1.0000
  16.750   0.6245   0.19657   0.18840  -0.0248   0.2001   1.0000
  17.000   0.6482   0.20435   0.19622  -0.0245   0.1953   1.0000
  17.250   0.6368   0.20292   0.19473  -0.0277   0.1904   1.0000
  17.500   0.6470   0.20629   0.19812  -0.0286   0.1841   1.0000
  17.750   0.6723   0.21532   0.20720  -0.0281   0.1803   1.0000
  18.000   0.6597   0.21285   0.20466  -0.0317   0.1771   1.0000
  18.250   0.6662   0.21536   0.20719  -0.0332   0.1707   1.0000
  18.500   0.6972   0.22644   0.21835  -0.0318   0.1655   1.0000
  18.750   0.6843   0.22304   0.21487  -0.0357   0.1636   1.0000
  19.000   0.6871   0.22459   0.21641  -0.0379   0.1586   1.0000
  19.250   0.6984   0.22830   0.22015  -0.0388   0.1538   1.0000
  19.500   0.7201   0.23748   0.22936  -0.0385   0.1506   1.0000
  19.750   0.7121   0.23474   0.22656  -0.0423   0.1482   1.0000
  20.000   0.7174   0.23675   0.22858  -0.0443   0.1426   1.0000
   0.000  -0.0000   0.03021   0.02119  -0.0000   1.0000   1.0000
  -0.250  -0.0843   0.03006   0.02104   0.0137   1.0000   0.9736
  -0.500  -0.1555   0.02971   0.02072   0.0243   1.0000   0.9480
  -0.750  -0.2327   0.02918   0.02024   0.0349   1.0000   0.9245
  -1.000  -0.3037   0.02849   0.01964   0.0437   1.0000   0.8996
  -1.250  -0.3828   0.02744   0.01867   0.0529   1.0000   0.8770
  -1.500  -0.4230   0.02697   0.01827   0.0553   1.0000   0.8488
  -1.750  -0.4573   0.02659   0.01790   0.0562   1.0000   0.8217
  -2.000  -0.4867   0.02620   0.01752   0.0557   1.0000   0.7956
  -2.250  -0.5019   0.02625   0.01758   0.0534   1.0000   0.7684
  -2.500  -0.5239   0.02600   0.01729   0.0514   1.0000   0.7447
  -2.750  -0.5348   0.02620   0.01750   0.0484   1.0000   0.7182
  -3.000  -0.5538   0.02605   0.01730   0.0458   1.0000   0.6955
  -3.250  -0.5646   0.02635   0.01761   0.0428   1.0000   0.6703
  -3.500  -0.5817   0.02635   0.01755   0.0400   1.0000   0.6478
  -3.750  -0.5947   0.02664   0.01783   0.0371   1.0000   0.6242
  -4.000  -0.6099   0.02684   0.01800   0.0343   1.0000   0.6012
  -4.250  -0.6277   0.02695   0.01802   0.0316   1.0000   0.5794
  -4.500  -0.6395   0.02743   0.01852   0.0287   1.0000   0.5557
  -4.750  -0.6572   0.02765   0.01865   0.0261   1.0000   0.5338
  -5.000  -0.6723   0.02809   0.01907   0.0234   1.0000   0.5115
  -5.250  -0.6866   0.02865   0.01961   0.0207   1.0000   0.4894
  -5.500  -0.7052   0.02902   0.01988   0.0184   1.0000   0.4683
  -5.750  -0.7212   0.02965   0.02048   0.0159   1.0000   0.4476
  -6.000  -0.7346   0.03046   0.02132   0.0133   1.0000   0.4266
  -6.250  -0.7511   0.03116   0.02198   0.0110   1.0000   0.4065
  -6.500  -0.7695   0.03184   0.02257   0.0088   1.0000   0.3873
  -6.750  -0.7880   0.03259   0.02324   0.0068   1.0000   0.3685
  -7.000  -0.8009   0.03371   0.02442   0.0043   1.0000   0.3507
  -7.250  -0.8145   0.03482   0.02558   0.0019   1.0000   0.3334
  -7.500  -0.8290   0.03601   0.02680  -0.0004   1.0000   0.3174
  -7.750  -0.8434   0.03722   0.02802  -0.0026   1.0000   0.3018
  -8.000  -0.8594   0.03847   0.02928  -0.0046   1.0000   0.2874
  -8.250  -0.8772   0.03968   0.03043  -0.0064   1.0000   0.2731
  -8.500  -0.8775   0.04191   0.03299  -0.0097   1.0000   0.2620
  -8.750  -0.8822   0.04407   0.03533  -0.0124   1.0000   0.2516
  -9.000  -0.8996   0.04552   0.03673  -0.0141   1.0000   0.2400
  -9.250  -0.8885   0.04874   0.04031  -0.0176   1.0000   0.2331
  -9.500  -0.9011   0.05063   0.04223  -0.0194   1.0000   0.2236
  -9.750  -0.8760   0.05480   0.04673  -0.0231   1.0000   0.2200
 -10.000  -0.9018   0.05602   0.04786  -0.0241   1.0000   0.2096
 -10.250  -0.8660   0.06100   0.05310  -0.0275   1.0000   0.2088
 -10.500  -0.8237   0.06644   0.05865  -0.0303   1.0000   0.2095
 -10.750  -0.7808   0.07315   0.06536  -0.0306   1.0000   0.2107
 -12.000  -0.3861   0.12980   0.12205   0.0008   1.0000   0.3460
 -12.250  -0.4120   0.13521   0.12753   0.0011   1.0000   0.3364
 -12.500  -0.3941   0.13532   0.12763   0.0015   1.0000   0.3275
 -12.750  -0.4092   0.13972   0.13207   0.0018   1.0000   0.3195
 -13.000  -0.4080   0.14119   0.13357   0.0021   1.0000   0.3081
 -13.250  -0.4109   0.14426   0.13666   0.0027   1.0000   0.3026
 -13.500  -0.4149   0.14632   0.13876   0.0030   1.0000   0.2919
 -13.750  -0.4128   0.14823   0.14071   0.0037   1.0000   0.2857
 -14.000  -0.4226   0.15116   0.14368   0.0040   1.0000   0.2755
 -14.250  -0.4206   0.15314   0.14567   0.0049   1.0000   0.2708
 -14.500  -0.4241   0.15492   0.14750   0.0054   1.0000   0.2608
 -14.750  -0.4286   0.15795   0.15054   0.0061   1.0000   0.2555
 -14.500  -0.4241   0.15492   0.14750   0.0054   1.0000   0.2608
 -14.600  -0.4479   0.16081   0.15341   0.0052   1.0000   0.2574
 -14.700  -0.4341   0.15870   0.15130   0.0058   1.0000   0.2565
 -15.000  -0.4271   0.15899   0.15162   0.0071   1.0000   0.2470
 -14.750  -0.4286   0.15795   0.15054   0.0061   1.0000   0.2555
 -14.850  -0.4236   0.15759   0.15020   0.0067   1.0000   0.2520
 -14.950  -0.4250   0.15836   0.15098   0.0070   1.0000   0.2486
 -15.250  -0.4477   0.16526   0.15792   0.0073   1.0000   0.2414
 -15.500  -0.4328   0.16358   0.15626   0.0089   1.0000   0.2346
 -15.750  -0.4598   0.17080   0.16354   0.0087   1.0000   0.2267
 -16.000  -0.4445   0.16928   0.16202   0.0106   1.0000   0.2234
 -16.250  -0.4468   0.17100   0.16377   0.0116   1.0000   0.2160
 -16.500  -0.4679   0.17782   0.17061   0.0117   1.0000   0.2105
 -16.750  -0.4541   0.17591   0.16872   0.0138   1.0000   0.2053
 -17.000  -0.4629   0.17897   0.17182   0.0145   1.0000   0.1987
 -17.250  -0.4789   0.18515   0.17801   0.0149   1.0000   0.1952
 -17.500  -0.4674   0.18356   0.17644   0.0171   1.0000   0.1905
 -17.750  -0.4757   0.18651   0.17943   0.0179   1.0000   0.1837
 -18.000  -0.4917   0.19288   0.18583   0.0183   1.0000   0.1801
 -18.250  -0.4817   0.19150   0.18446   0.0206   1.0000   0.1764
 -18.500  -0.4863   0.19385   0.18684   0.0218   1.0000   0.1707
 -18.750  -0.5126   0.20325   0.19629   0.0213   1.0000   0.1656
 -19.000  -0.4991   0.20049   0.19352   0.0240   1.0000   0.1637
 -19.250  -0.4992   0.20177   0.19482   0.0257   1.0000   0.1582
 -19.500  -0.5078   0.20517   0.19826   0.0265   1.0000   0.1535
 -19.750  -0.5260   0.21306   0.20618   0.0267   1.0000   0.1506
 -20.000  -0.5158   0.21095   0.20408   0.0294   1.0000   0.1484
