  
       XFOIL         Version 6.99
  
 Calculated polar for: PSU 94-097 (AIAA 2001-2478)                     
  
 1 1 Reynolds number fixed          Mach number fixed         
  
 xtrf =   1.000 (top)        1.000 (bottom)  
 Mach =   0.000     Re =     0.050 e 6     Ncrit =   9.000
  
   alpha    CL        CD       CDp       CM     Top_Xtr  Bot_Xtr
  ------ -------- --------- --------- -------- -------- --------
   0.000   0.1532   0.02763   0.01839  -0.0716   1.0000   1.0000
   0.250   0.1757   0.02843   0.01891  -0.0721   1.0000   1.0000
   0.500   0.1977   0.02928   0.01952  -0.0726   1.0000   1.0000
   0.750   0.2208   0.03020   0.02023  -0.0734   0.9991   1.0000
   1.000   0.2637   0.03143   0.02123  -0.0778   0.9888   1.0000
   1.250   0.3056   0.03269   0.02227  -0.0820   0.9782   1.0000
   1.500   0.3478   0.03397   0.02338  -0.0862   0.9670   1.0000
   1.750   0.3913   0.03525   0.02452  -0.0904   0.9554   1.0000
   2.000   0.4246   0.03635   0.02554  -0.0928   0.9427   1.0000
   2.250   0.4590   0.03748   0.02662  -0.0953   0.9295   1.0000
   2.500   0.4940   0.03861   0.02771  -0.0978   0.9155   1.0000
   2.750   0.5298   0.03972   0.02880  -0.1002   0.9009   1.0000
   3.000   0.5666   0.04078   0.02986  -0.1026   0.8859   1.0000
   3.250   0.6035   0.04178   0.03089  -0.1049   0.8703   1.0000
   3.500   0.6285   0.04278   0.03195  -0.1052   0.8533   1.0000
   3.750   0.6581   0.04371   0.03294  -0.1061   0.8359   1.0000
   4.000   0.6929   0.04450   0.03380  -0.1074   0.8184   1.0000
   4.250   0.7335   0.04504   0.03449  -0.1092   0.8013   1.0000
   4.500   0.7592   0.04583   0.03538  -0.1090   0.7820   1.0000
   4.750   0.7910   0.04632   0.03600  -0.1092   0.7627   1.0000
   5.000   0.8345   0.04618   0.03603  -0.1103   0.7450   1.0000
   5.250   0.8580   0.04673   0.03677  -0.1092   0.7238   1.0000
   5.500   0.8980   0.04625   0.03649  -0.1092   0.7047   1.0000
   5.750   0.9499   0.04466   0.03516  -0.1095   0.6879   1.0000
   6.000   0.9712   0.04480   0.03552  -0.1074   0.6647   1.0000
   6.250   1.0205   0.04243   0.03343  -0.1063   0.6472   1.0000
   6.500   1.0521   0.04131   0.03254  -0.1041   0.6246   1.0000
   6.500   1.0521   0.04131   0.03254  -0.1041   0.6246   1.0000
   6.600   1.0811   0.03929   0.03069  -0.1038   0.6185   1.0000
   6.700   1.0890   0.03918   0.03067  -0.1027   0.6075   1.0000
   7.000   1.1430   0.03597   0.02773  -0.1003   0.5777   1.0000
   7.250   1.1855   0.03356   0.02544  -0.0983   0.5478   1.0000
   7.500   1.2127   0.03280   0.02480  -0.0958   0.5123   1.0000
   7.750   1.2432   0.03209   0.02401  -0.0936   0.4747   1.0000
   8.000   1.2676   0.03229   0.02406  -0.0914   0.4358   1.0000
   8.250   1.2859   0.03325   0.02495  -0.0890   0.3981   1.0000
   8.500   1.3053   0.03439   0.02591  -0.0869   0.3613   1.0000
   8.750   1.3213   0.03585   0.02731  -0.0847   0.3258   1.0000
   9.000   1.3371   0.03751   0.02883  -0.0825   0.2918   1.0000
   9.250   1.3486   0.03943   0.03073  -0.0800   0.2599   1.0000
   9.500   1.3597   0.04142   0.03264  -0.0775   0.2294   1.0000
   9.750   1.3702   0.04367   0.03486  -0.0751   0.2018   1.0000
  10.000   1.3796   0.04615   0.03733  -0.0726   0.1775   1.0000
  10.250   1.3922   0.04863   0.03961  -0.0706   0.1550   1.0000
  10.500   1.3991   0.05182   0.04307  -0.0680   0.1397   1.0000
  10.750   1.4054   0.05493   0.04636  -0.0656   0.1264   1.0000
  11.000   1.4146   0.05833   0.04984  -0.0637   0.1149   1.0000
  11.250   1.4057   0.06225   0.05436  -0.0601   0.1103   1.0000
  11.500   1.4121   0.06576   0.05795  -0.0583   0.1019   1.0000
  11.750   1.3930   0.06948   0.06214  -0.0543   0.1001   1.0000
  12.000   1.3725   0.07344   0.06647  -0.0511   0.0988   1.0000
  12.250   1.3503   0.07785   0.07121  -0.0487   0.0981   1.0000
  12.500   1.3254   0.08287   0.07652  -0.0474   0.0984   1.0000
  12.750   1.2985   0.08854   0.08244  -0.0471   0.0992   1.0000
  13.000   1.2715   0.09487   0.08891  -0.0480   0.1004   1.0000
  13.250   1.2457   0.10176   0.09596  -0.0497   0.1015   1.0000
  13.500   1.2218   0.10914   0.10346  -0.0523   0.1025   1.0000
  13.500   1.2154   0.11000   0.10437  -0.0532   0.1042   1.0000
  13.600   1.2092   0.11272   0.10712  -0.0540   0.1038   1.0000
  13.700   1.2036   0.11551   0.10992  -0.0549   0.1034   1.0000
  13.750   1.1569   0.12588   0.12034  -0.0631   0.1163   1.0000
  14.250   1.0364   0.17694   0.17075  -0.0999   0.1838   1.0000
  14.250   0.7453   0.16891   0.16264  -0.0808   0.3077   1.0000
  14.350   0.7339   0.16843   0.16215  -0.0813   0.3062   1.0000
  14.450   0.7277   0.16859   0.16231  -0.0816   0.3024   1.0000
  14.750   0.7327   0.17257   0.16635  -0.0820   0.2910   1.0000
  15.000   0.7386   0.17585   0.16970  -0.0821   0.2782   1.0000
  15.250   0.7447   0.17915   0.17311  -0.0824   0.2674   1.0000
  15.500   0.7371   0.18122   0.17518  -0.0835   0.2626   1.0000
  15.750   0.7527   0.18657   0.18062  -0.0834   0.2517   1.0000
  16.000   0.7396   0.18676   0.18081  -0.0848   0.2436   1.0000
  16.250   0.7441   0.19031   0.18441  -0.0853   0.2354   1.0000
  16.500   0.7487   0.19351   0.18767  -0.0857   0.2266   1.0000
  16.750   0.7497   0.19704   0.19121  -0.0867   0.2224   1.0000
  17.000   0.7518   0.19965   0.19387  -0.0873   0.2129   1.0000
  17.250   0.7504   0.20249   0.19671  -0.0885   0.2070   1.0000
  17.500   0.7685   0.20878   0.20310  -0.0880   0.1970   1.0000
  17.750   0.7560   0.20915   0.20344  -0.0900   0.1942   1.0000
  18.000   0.7568   0.21177   0.20609  -0.0910   0.1871   1.0000
  18.250   0.7640   0.21639   0.21073  -0.0914   0.1818   1.0000
  18.500   0.7607   0.21806   0.21243  -0.0929   0.1740   1.0000
  18.750   0.7726   0.22390   0.21830  -0.0928   0.1688   1.0000
  19.000   0.7644   0.22468   0.21908  -0.0949   0.1645   1.0000
  19.250   0.7710   0.22854   0.22302  -0.0953   0.1581   1.0000
  19.500   0.7746   0.23274   0.22723  -0.0962   0.1546   1.0000
  19.750   0.7713   0.23447   0.22896  -0.0979   0.1485   1.0000
  20.000   0.7890   0.24217   0.23671  -0.0971   0.1423   1.0000
   0.000   0.0710   0.01327   0.00558  -0.0573   1.0000   1.0000
  -0.250   0.0509   0.01241   0.00508  -0.0570   1.0000   1.0000
  -0.500   0.0297   0.01162   0.00475  -0.0565   1.0000   1.0000
  -0.750   0.0057   0.01089   0.00481  -0.0557   1.0000   1.0000
  -1.000   0.0218   0.01195   0.00497  -0.0655   1.0000   0.5577
  -1.250   0.0468   0.02474   0.01789  -0.0713   1.0000   0.8595
  -1.500   0.0187   0.02914   0.01893  -0.0751   1.0000   0.2079
  -1.750  -0.0142   0.03046   0.02013  -0.0743   1.0000   0.1537
  -2.000  -0.0454   0.03177   0.02168  -0.0738   1.0000   0.1315
  -2.250  -0.0756   0.03319   0.02338  -0.0731   1.0000   0.1175
  -2.500  -0.1075   0.03503   0.02558  -0.0721   1.0000   0.1125
  -2.750  -0.1396   0.03748   0.02837  -0.0706   1.0000   0.1103
  -3.000  -0.1746   0.04028   0.03174  -0.0684   1.0000   0.1092
  -3.250  -0.2201   0.04456   0.03709  -0.0637   1.0000   0.1204
  -3.250  -0.2201   0.04456   0.03709  -0.0637   1.0000   0.1204
  -3.350  -0.2328   0.04600   0.03865  -0.0629   1.0000   0.1255
  -3.750  -0.4154   0.07099   0.06617   0.0017   1.0000   0.4005
  -4.000  -0.4183   0.07339   0.06852  -0.0013   1.0000   0.3715
  -4.250  -0.4200   0.07582   0.07090  -0.0029   1.0000   0.3450
  -4.500  -0.4239   0.07847   0.07350  -0.0064   1.0000   0.3266
  -4.750  -0.4240   0.08112   0.07609  -0.0074   1.0000   0.3085
  -5.000  -0.4206   0.08324   0.07816  -0.0073   1.0000   0.2906
  -5.250  -0.4189   0.08569   0.08055  -0.0089   1.0000   0.2779
  -5.500  -0.4224   0.08868   0.08347  -0.0127   1.0000   0.2664
  -5.750  -0.4183   0.09064   0.08538  -0.0140   1.0000   0.2538
  -6.000  -0.3977   0.09154   0.08616  -0.0132   1.0000   0.2464
  -6.250  -0.4021   0.09469   0.08929  -0.0168   1.0000   0.2373
  -6.500  -0.3760   0.09466   0.08906  -0.0178   1.0000   0.2319
  -6.750  -0.3824   0.09805   0.09243  -0.0212   1.0000   0.2229
  -7.000  -0.3523   0.09750   0.09169  -0.0240   1.0000   0.2203
  -7.250  -0.3663   0.10170   0.09587  -0.0265   1.0000   0.2090
  -7.500  -0.3370   0.10103   0.09497  -0.0291   1.0000   0.2073
  -7.750  -0.3279   0.10224   0.09604  -0.0305   1.0000   0.1993
  -8.000  -0.3304   0.10535   0.09905  -0.0313   1.0000   0.1930
  -8.250  -0.3303   0.10745   0.10106  -0.0315   1.0000   0.1839
  -8.500  -0.3327   0.11058   0.10409  -0.0313   1.0000   0.1786
  -8.750  -0.3340   0.11283   0.10626  -0.0307   1.0000   0.1702
  -9.000  -0.3426   0.11690   0.11027  -0.0308   1.0000   0.1651
  -9.250  -0.3385   0.11840   0.11167  -0.0290   1.0000   0.1587
  -9.500  -0.3640   0.12532   0.11861  -0.0310   1.0000   0.1521
  -9.750  -0.3508   0.12518   0.11834  -0.0277   1.0000   0.1496
 -10.000  -0.3529   0.12756   0.12066  -0.0263   1.0000   0.1438
 -10.250  -0.3799   0.13533   0.12846  -0.0284   1.0000   0.1380
 -10.500  -0.3686   0.13512   0.12813  -0.0250   1.0000   0.1364
 -10.750  -0.3679   0.13691   0.12986  -0.0231   1.0000   0.1317
 -11.000  -0.3786   0.14078   0.13372  -0.0228   1.0000   0.1265
 -11.250  -0.3955   0.14721   0.14016  -0.0232   1.0000   0.1235
 -11.500  -0.3885   0.14733   0.14019  -0.0202   1.0000   0.1216
 -11.750  -0.3909   0.14952   0.14234  -0.0184   1.0000   0.1175
 -12.000  -0.3997   0.15306   0.14586  -0.0177   1.0000   0.1133
 -12.250  -0.4253   0.16216   0.15498  -0.0190   1.0000   0.1097
 -12.500  -0.4187   0.16180   0.15454  -0.0161   1.0000   0.1089
 -12.750  -0.4176   0.16268   0.15536  -0.0136   1.0000   0.1064
 -13.000  -0.4230   0.16531   0.15796  -0.0120   1.0000   0.1029
 -13.250  -0.4319   0.16882   0.16146  -0.0110   1.0000   0.0995
 -13.500  -0.4619   0.18047   0.17314  -0.0128   1.0000   0.0957
 -13.750  -0.4571   0.17979   0.17239  -0.0099   1.0000   0.0953
 -14.000  -0.4556   0.17972   0.17227  -0.0071   1.0000   0.0942
 -14.250  -0.4595   0.18138   0.17390  -0.0049   1.0000   0.0918
 -14.500  -0.4666   0.18418   0.17668  -0.0032   1.0000   0.0889
 -14.750  -0.4753   0.18749   0.17997  -0.0019   1.0000   0.0863
 -15.000  -0.4871   0.19211   0.18459  -0.0012   1.0000   0.0837
 -15.250  -0.5084   0.20251   0.19504  -0.0016   1.0000   0.0818
 -15.500  -0.5073   0.20156   0.19403   0.0013   1.0000   0.0814
 -15.750  -0.5094   0.20154   0.19397   0.0042   1.0000   0.0804
 -16.000  -0.5154   0.20324   0.19564   0.0066   1.0000   0.0783
 -16.250  -0.5234   0.20595   0.19833   0.0085   1.0000   0.0758
 -16.500  -0.5323   0.20906   0.20144   0.0101   1.0000   0.0734
 -16.750  -0.5423   0.21279   0.20516   0.0114   1.0000   0.0711
 -17.000  -0.5695   0.22862   0.22103   0.0096   1.0000   0.0683
 -17.250  -0.5701   0.22723   0.21960   0.0126   1.0000   0.0681
 -17.500  -0.5728   0.22639   0.21871   0.0156   1.0000   0.0678
 -17.750  -0.5778   0.22654   0.21884   0.0185   1.0000   0.0670
 -18.000  -0.5850   0.22811   0.22038   0.0211   1.0000   0.0657
 -18.250  -0.5935   0.23058   0.22284   0.0234   1.0000   0.0642
 -18.500  -0.6023   0.23339   0.22565   0.0255   1.0000   0.0626
 -18.750  -0.6114   0.23636   0.22866   0.0274   1.0000   0.0611
 -19.000  -0.6207   0.23947   0.23177   0.0293   1.0000   0.0596
 -19.250  -0.6302   0.24282   0.23512   0.0311   1.0000   0.0582
 -19.500  -0.6404   0.24685   0.23915   0.0326   1.0000   0.0569
 -19.750  -0.6533   0.25444   0.24676   0.0331   1.0000   0.0556
 -20.000  -0.6688   0.26557   0.25787   0.0336   1.0000   0.0550
