  
       XFOIL         Version 6.99
  
 Calculated polar for: E176  (8.83%)                                   
  
 1 1 Reynolds number fixed          Mach number fixed         
  
 xtrf =   1.000 (top)        1.000 (bottom)  
 Mach =   0.000     Re =     0.050 e 6     Ncrit =   9.000
  
   alpha    CL        CD       CDp       CM     Top_Xtr  Bot_Xtr
  ------ -------- --------- --------- -------- -------- --------
   0.000   0.1569   0.02534   0.01557  -0.0610   0.9367   1.0000
   0.250   0.1963   0.02620   0.01614  -0.0641   0.9284   1.0000
   0.500   0.2200   0.02692   0.01667  -0.0646   0.9192   1.0000
   0.750   0.2518   0.02776   0.01735  -0.0664   0.9108   1.0000
   1.000   0.2814   0.02859   0.01804  -0.0677   0.9023   1.0000
   1.250   0.3059   0.02944   0.01876  -0.0683   0.8936   1.0000
   1.500   0.3433   0.03039   0.01960  -0.0709   0.8856   1.0000
   1.750   0.3596   0.03126   0.02041  -0.0702   0.8765   1.0000
   2.000   0.3880   0.03224   0.02133  -0.0713   0.8681   1.0000
   2.250   0.4155   0.03321   0.02226  -0.0723   0.8592   1.0000
   2.500   0.4347   0.03424   0.02327  -0.0720   0.8501   1.0000
   2.750   0.4663   0.03527   0.02431  -0.0735   0.8410   1.0000
   3.000   0.4881   0.03633   0.02540  -0.0736   0.8313   1.0000
   3.250   0.5073   0.03747   0.02655  -0.0734   0.8213   1.0000
   3.500   0.5349   0.03857   0.02770  -0.0742   0.8108   1.0000
   3.750   0.5705   0.03961   0.02882  -0.0759   0.7999   1.0000
   4.000   0.5857   0.04082   0.03009  -0.0751   0.7881   1.0000
   4.250   0.6059   0.04202   0.03140  -0.0748   0.7756   1.0000
   4.500   0.6288   0.04320   0.03268  -0.0748   0.7625   1.0000
   4.750   0.6534   0.04434   0.03394  -0.0748   0.7484   1.0000
   5.000   0.6801   0.04540   0.03515  -0.0749   0.7333   1.0000
   5.250   0.7113   0.04628   0.03625  -0.0752   0.7172   1.0000
   5.500   0.7546   0.04663   0.03686  -0.0762   0.7002   1.0000
   5.750   0.7647   0.04800   0.03835  -0.0743   0.6815   1.0000
   6.000   0.7966   0.04842   0.03902  -0.0738   0.6616   1.0000
   6.250   0.8414   0.04793   0.03892  -0.0735   0.6407   1.0000
   6.500   0.8770   0.04731   0.03862  -0.0718   0.6180   1.0000
   6.750   0.9149   0.04596   0.03762  -0.0693   0.5936   1.0000
   7.000   0.9691   0.04220   0.03436  -0.0657   0.5675   1.0000
   7.250   1.0216   0.03748   0.03008  -0.0612   0.5354   1.0000
   7.250   1.0216   0.03748   0.03008  -0.0612   0.5354   1.0000
   7.350   1.0434   0.03518   0.02794  -0.0591   0.5195   1.0000
   7.450   1.0641   0.03282   0.02566  -0.0568   0.5008   1.0000
   7.750   1.0937   0.02899   0.02185  -0.0499   0.4177   1.0000
   8.000   1.0952   0.02927   0.02134  -0.0441   0.3180   1.0000
   8.250   1.0875   0.03197   0.02305  -0.0396   0.2356   1.0000
   8.500   1.0786   0.03503   0.02551  -0.0359   0.1757   1.0000
   8.750   1.0804   0.03830   0.02822  -0.0331   0.1300   1.0000
   9.000   1.1099   0.04176   0.03133  -0.0321   0.1009   1.0000
   9.250   1.1478   0.04555   0.03515  -0.0321   0.0884   1.0000
   9.500   1.1660   0.04873   0.03891  -0.0307   0.0825   1.0000
   9.750   1.1913   0.05295   0.04304  -0.0307   0.0765   1.0000
  10.000   1.2004   0.05676   0.04744  -0.0289   0.0755   1.0000
  10.250   1.2056   0.06097   0.05214  -0.0271   0.0752   1.0000
  10.500   1.2059   0.06530   0.05690  -0.0254   0.0753   1.0000
  10.750   1.2025   0.06976   0.06172  -0.0238   0.0756   1.0000
  11.000   1.1975   0.07436   0.06659  -0.0225   0.0760   1.0000
  11.250   1.1922   0.07934   0.07179  -0.0215   0.0765   1.0000
  11.500   1.1608   0.08206   0.07489  -0.0193   0.0774   1.0000
  11.750   1.1143   0.08672   0.07990  -0.0202   0.0789   1.0000
  12.000   1.0717   0.09391   0.08732  -0.0241   0.0806   1.0000
  12.250   1.0339   0.10269   0.09623  -0.0297   0.0829   1.0000
  12.500   1.0032   0.11240   0.10593  -0.0360   0.0853   1.0000
  12.750   0.9875   0.12086   0.11439  -0.0405   0.0874   1.0000
  13.000   0.9833   0.12772   0.12124  -0.0431   0.0886   1.0000
  13.500   0.9349   0.15581   0.14914  -0.0615   0.1140   1.0000
  13.250   0.9291   0.15006   0.14338  -0.0602   0.1114   1.0000
  13.350   0.9309   0.15244   0.14576  -0.0609   0.1128   1.0000
  13.450   0.9339   0.15463   0.14796  -0.0612   0.1137   1.0000
  13.750   0.9028   0.17890   0.17212  -0.0797   0.2243   1.0000
  14.000   0.9062   0.18403   0.17723  -0.0816   0.2229   1.0000
  14.250   0.8942   0.18594   0.17908  -0.0849   0.2171   1.0000
  14.500   0.9134   0.19182   0.18501  -0.0846   0.2106   1.0000
  14.750   0.9081   0.19478   0.18791  -0.0876   0.2070   1.0000
  15.000   0.9194   0.19902   0.19218  -0.0881   0.1976   1.0000
  15.250   0.9219   0.20299   0.19612  -0.0903   0.1940   1.0000
  15.500   0.9249   0.20588   0.19900  -0.0922   0.1861   1.0000
  15.750   0.9473   0.21362   0.20679  -0.0916   0.1820   1.0000
  16.000   0.9353   0.21354   0.20663  -0.0961   0.1772   1.0000
  16.250   0.9460   0.21774   0.21086  -0.0971   0.1713   1.0000
  16.500   0.9627   0.22469   0.21784  -0.0973   0.1682   1.0000
  16.750   0.9553   0.22480   0.21788  -0.1015   0.1635   1.0000
  17.000   0.9658   0.22891   0.22202  -0.1026   0.1578   1.0000
  17.250   0.9837   0.23654   0.22968  -0.1024   0.1547   1.0000
  17.500   0.9767   0.23596   0.22903  -0.1071   0.1508   1.0000
  17.750   0.9851   0.23947   0.23260  -0.1086   0.1454   1.0000
  18.000   1.0058   0.24821   0.24140  -0.1078   0.1413   1.0000
  18.250   0.9995   0.24699   0.24011  -0.1126   0.1386   1.0000
  18.500   1.0063   0.24991   0.24303  -0.1147   0.1328   1.0000
  18.750   1.0286   0.25979   0.25298  -0.1132   0.1281   1.0000
  19.000   1.0229   0.25784   0.25096  -0.1182   0.1261   1.0000
  19.250   1.0278   0.26008   0.25319  -0.1209   0.1212   1.0000
  19.500   1.0395   0.26469   0.25784  -0.1217   0.1170   1.0000
  19.750   1.0556   0.27339   0.26657  -0.1217   0.1148   1.0000
  20.000   1.0528   0.27163   0.26476  -0.1264   0.1131   1.0000
   0.000   0.1569   0.02534   0.01557  -0.0610   0.9367   1.0000
  -0.250   0.1253   0.02459   0.01510  -0.0592   0.9456   1.0000
  -0.500   0.0926   0.02388   0.01470  -0.0572   0.9547   1.0000
  -0.750   0.0531   0.02307   0.01436  -0.0540   0.9635   1.0000
  -1.000   0.0177   0.02237   0.01416  -0.0515   0.9725   1.0000
  -1.250  -0.0224   0.02164   0.01418  -0.0483   0.9819   1.0000
  -1.500  -0.0635   0.02577   0.01546  -0.0480   0.9870   0.2199
  -1.750  -0.1055   0.02716   0.01672  -0.0455   0.9941   0.1521
  -2.000  -0.1440   0.02834   0.01808  -0.0435   1.0000   0.1304
  -2.250  -0.1673   0.02950   0.01948  -0.0439   1.0000   0.1246
  -2.500  -0.1901   0.03111   0.02126  -0.0442   1.0000   0.1214
  -2.750  -0.2144   0.03281   0.02343  -0.0444   1.0000   0.1199
  -3.000  -0.2393   0.03472   0.02594  -0.0443   1.0000   0.1183
  -3.250  -0.2635   0.03702   0.02871  -0.0439   1.0000   0.1186
  -3.500  -0.2912   0.04032   0.03281  -0.0427   1.0000   0.1279
  -3.750  -0.3100   0.04360   0.03617  -0.0426   1.0000   0.1350
  -4.750  -0.4032   0.06889   0.06395   0.0040   1.0000   0.4024
  -4.500  -0.4158   0.06751   0.06267   0.0081   1.0000   0.4259
  -4.600  -0.4090   0.06796   0.06308   0.0066   1.0000   0.4149
  -4.700  -0.4156   0.06939   0.06449   0.0039   1.0000   0.4091
  -5.000  -0.3920   0.07018   0.06514  -0.0001   1.0000   0.3850
  -4.750  -0.4032   0.06889   0.06395   0.0040   1.0000   0.4025
  -4.850  -0.4054   0.06983   0.06487   0.0019   1.0000   0.3960
  -4.950  -0.3941   0.06997   0.06494   0.0007   1.0000   0.3882
  -5.250  -0.3810   0.07157   0.06642  -0.0044   1.0000   0.3690
  -5.500  -0.3724   0.07316   0.06788  -0.0084   1.0000   0.3535
  -5.750  -0.3722   0.07551   0.07011  -0.0118   1.0000   0.3375
  -6.000  -0.3770   0.07861   0.07310  -0.0149   1.0000   0.3215
  -6.250  -0.3705   0.08046   0.07479  -0.0152   1.0000   0.3062
  -6.500  -0.3685   0.08281   0.07701  -0.0154   1.0000   0.2909
  -6.750  -0.3729   0.08574   0.07984  -0.0160   1.0000   0.2769
  -7.000  -0.3800   0.08899   0.08301  -0.0167   1.0000   0.2631
  -7.250  -0.3880   0.09236   0.08631  -0.0174   1.0000   0.2492
  -7.500  -0.3718   0.09299   0.08675  -0.0159   1.0000   0.2401
  -7.750  -0.3740   0.09591   0.08958  -0.0156   1.0000   0.2297
  -8.000  -0.3838   0.09957   0.09322  -0.0158   1.0000   0.2186
  -8.250  -0.4025   0.10446   0.09810  -0.0170   1.0000   0.2062
  -8.500  -0.3868   0.10480   0.09828  -0.0140   1.0000   0.1998
  -8.750  -0.4067   0.11018   0.10367  -0.0151   1.0000   0.1915
  -9.000  -0.3961   0.11099   0.10435  -0.0124   1.0000   0.1849
  -9.250  -0.4197   0.11720   0.11058  -0.0138   1.0000   0.1775
  -9.500  -0.4067   0.11749   0.11074  -0.0105   1.0000   0.1731
  -9.750  -0.4224   0.12212   0.11538  -0.0110   1.0000   0.1650
 -10.000  -0.4231   0.12513   0.11831  -0.0093   1.0000   0.1619
 -10.250  -0.4217   0.12701   0.12013  -0.0073   1.0000   0.1560
 -10.500  -0.4500   0.13497   0.12813  -0.0092   1.0000   0.1492
 -10.750  -0.4380   0.13479   0.12784  -0.0057   1.0000   0.1474
 -11.000  -0.4381   0.13680   0.12981  -0.0037   1.0000   0.1422
 -11.250  -0.4571   0.14267   0.13574  -0.0044   1.0000   0.1361
 -11.500  -0.4606   0.14616   0.13916  -0.0028   1.0000   0.1343
 -11.750  -0.4563   0.14703   0.13997  -0.0001   1.0000   0.1309
 -12.000  -0.4624   0.15007   0.14299   0.0012   1.0000   0.1262
 -12.250  -0.4888   0.15900   0.15195  -0.0001   1.0000   0.1208
 -12.500  -0.4801   0.15847   0.15133   0.0031   1.0000   0.1195
 -12.750  -0.4806   0.16001   0.15283   0.0054   1.0000   0.1154
 -13.000  -0.4893   0.16358   0.15640   0.0064   1.0000   0.1106
 -13.250  -0.5135   0.17283   0.16568   0.0055   1.0000   0.1068
 -13.500  -0.5076   0.17226   0.16503   0.0086   1.0000   0.1058
 -13.750  -0.5086   0.17351   0.16625   0.0111   1.0000   0.1033
 -14.000  -0.5149   0.17631   0.16903   0.0128   1.0000   0.1000
 -14.250  -0.5242   0.18006   0.17277   0.0139   1.0000   0.0965
 -14.500  -0.5530   0.19240   0.18520   0.0125   1.0000   0.0930
 -14.750  -0.5494   0.19155   0.18429   0.0155   1.0000   0.0926
 -15.000  -0.5489   0.19138   0.18407   0.0184   1.0000   0.0915
 -15.250  -0.5532   0.19301   0.18568   0.0208   1.0000   0.0891
 -15.500  -0.5607   0.19589   0.18855   0.0226   1.0000   0.0863
 -15.750  -0.5696   0.19934   0.19199   0.0241   1.0000   0.0835
 -16.000  -0.5815   0.20425   0.19691   0.0249   1.0000   0.0810
 -16.250  -0.6026   0.21552   0.20819   0.0246   1.0000   0.0791
 -16.500  -0.6019   0.21420   0.20682   0.0276   1.0000   0.0787
 -16.750  -0.6041   0.21376   0.20634   0.0307   1.0000   0.0776
 -17.000  -0.6107   0.21560   0.20816   0.0332   1.0000   0.0758
 -17.250  -0.6185   0.21832   0.21087   0.0351   1.0000   0.0726
 -17.500  -0.6275   0.22151   0.21406   0.0369   1.0000   0.0704
 -17.750  -0.6384   0.22597   0.21853   0.0380   1.0000   0.0678
 -18.000  -0.6617   0.24095   0.23359   0.0370   1.0000   0.0657
 -18.250  -0.6625   0.23898   0.23156   0.0401   1.0000   0.0655
 -18.500  -0.6664   0.23837   0.23093   0.0431   1.0000   0.0650
 -18.750  -0.6719   0.23876   0.23130   0.0460   1.0000   0.0641
 -19.000  -0.6794   0.24064   0.23316   0.0485   1.0000   0.0626
 -19.250  -0.6880   0.24333   0.23585   0.0507   1.0000   0.0608
 -19.500  -0.6966   0.24627   0.23877   0.0527   1.0000   0.0591
 -19.750  -0.7057   0.24940   0.24191   0.0547   1.0000   0.0575
 -20.000  -0.7150   0.25282   0.24533   0.0565   1.0000   0.0559
