  
       XFOIL         Version 6.99
  
 Calculated polar for: Gottingen 765 airfoil (recovered). Thick: .144 L
  
 1 1 Reynolds number fixed          Mach number fixed         
  
 xtrf =   1.000 (top)        1.000 (bottom)  
 Mach =   0.000     Re =     0.050 e 6     Ncrit =   9.000
  
   alpha    CL        CD       CDp       CM     Top_Xtr  Bot_Xtr
  ------ -------- --------- --------- -------- -------- --------
   0.000   0.4254   0.03208   0.02227  -0.0705   0.7912   1.0000
   0.250   0.4410   0.03266   0.02281  -0.0687   0.7761   1.0000
   0.500   0.4586   0.03313   0.02324  -0.0670   0.7621   1.0000
   0.750   0.4799   0.03335   0.02342  -0.0654   0.7495   1.0000
   1.000   0.4909   0.03421   0.02427  -0.0633   0.7342   1.0000
   1.250   0.5031   0.03505   0.02511  -0.0612   0.7198   1.0000
   1.500   0.5190   0.03568   0.02571  -0.0593   0.7071   1.0000
   1.750   0.5392   0.03594   0.02595  -0.0575   0.6954   1.0000
   2.000   0.5475   0.03714   0.02717  -0.0554   0.6811   1.0000
   2.250   0.5590   0.03813   0.02817  -0.0533   0.6685   1.0000
   2.500   0.5836   0.03808   0.02810  -0.0515   0.6585   1.0000
   2.750   0.5868   0.03975   0.02980  -0.0493   0.6445   1.0000
   3.000   0.5954   0.04098   0.03105  -0.0470   0.6323   1.0000
   3.250   0.6215   0.04086   0.03093  -0.0453   0.6228   1.0000
   3.500   0.6171   0.04314   0.03324  -0.0427   0.6094   1.0000
   3.750   0.6272   0.04429   0.03441  -0.0405   0.5985   1.0000
   4.000   0.6473   0.04466   0.03480  -0.0386   0.5882   1.0000
   4.250   0.6321   0.04771   0.03787  -0.0353   0.5759   1.0000
   4.500   0.6806   0.04599   0.03618  -0.0345   0.5681   1.0000
   4.750   0.6466   0.05042   0.04063  -0.0305   0.5548   1.0000
   5.000   0.6360   0.05307   0.04328  -0.0273   0.5447   1.0000
   5.250   0.6645   0.05298   0.04324  -0.0258   0.5349   1.0000
   5.500   0.6055   0.05843   0.04860  -0.0201   0.5254   1.0000
   5.750   0.6863   0.05536   0.04570  -0.0213   0.5156   1.0000
   6.000   0.5799   0.06334   0.05346  -0.0132   0.5081   1.0000
   6.250   0.6449   0.06190   0.05217  -0.0141   0.4970   1.0000
   6.500   0.5680   0.06807   0.05817  -0.0083   0.4912   1.0000
   6.750   0.6216   0.06713   0.05737  -0.0080   0.4797   1.0000
   7.000   0.5628   0.07284   0.06295  -0.0044   0.4748   1.0000
   7.250   0.6136   0.07204   0.06227  -0.0036   0.4627   1.0000
   7.500   0.5618   0.07773   0.06786  -0.0012   0.4585   1.0000
   7.750   0.5493   0.08107   0.07120   0.0001   0.4526   1.0000
   8.000   0.5663   0.08268   0.07285   0.0013   0.4429   1.0000
   8.250   0.5457   0.08679   0.07694   0.0022   0.4393   1.0000
   8.500   0.5418   0.08997   0.08014   0.0028   0.4344   1.0000
   8.750   0.5526   0.09219   0.08239   0.0038   0.4250   1.0000
   9.000   0.5404   0.09623   0.08644   0.0040   0.4239   1.0000
   9.250   0.5385   0.10030   0.09055   0.0038   0.4260   1.0000
   9.500   0.5446   0.10439   0.09470   0.0034   0.4278   1.0000
   9.750   0.5817   0.10297   0.09335   0.0067   0.3941   1.0000
   9.750   0.5817   0.10297   0.09335   0.0067   0.3941   1.0000
  11.000   0.5034   0.12707   0.11751   0.0015   0.4429   1.0000
  11.100   0.4986   0.12749   0.11793   0.0019   0.4369   1.0000
  11.200   0.5084   0.12890   0.11938   0.0019   0.4319   1.0000
  11.500   0.5073   0.13206   0.12255   0.0023   0.4202   1.0000
  11.750   0.5334   0.13679   0.12737   0.0021   0.4105   1.0000
  12.000   0.5215   0.13790   0.12849   0.0027   0.3991   1.0000
  12.250   0.5288   0.14143   0.13204   0.0027   0.3910   1.0000
  12.500   0.5443   0.14477   0.13546   0.0029   0.3786   1.0000
  12.750   0.5342   0.14693   0.13760   0.0028   0.3715   1.0000
  13.000   0.5682   0.15274   0.14353   0.0029   0.3599   1.0000
  13.250   0.5433   0.15276   0.14348   0.0026   0.3524   1.0000
  13.500   0.5725   0.15845   0.14928   0.0028   0.3427   1.0000
  13.750   0.5535   0.15878   0.14956   0.0023   0.3346   1.0000
  14.000   0.5829   0.16484   0.15572   0.0025   0.3260   1.0000
  14.250   0.5636   0.16487   0.15571   0.0017   0.3184   1.0000
  14.500   0.5982   0.17186   0.16280   0.0021   0.3096   1.0000
  14.750   0.5743   0.17110   0.16198   0.0008   0.3035   1.0000
  15.000   0.5972   0.17603   0.16700   0.0012   0.2941   1.0000
  15.250   0.5884   0.17778   0.16872  -0.0000   0.2899   1.0000
  15.500   0.5963   0.18052   0.17149  -0.0003   0.2801   1.0000
  15.750   0.6072   0.18516   0.17616  -0.0008   0.2756   1.0000
  16.000   0.6016   0.18616   0.17715  -0.0020   0.2677   1.0000
  16.250   0.6325   0.19383   0.18490  -0.0013   0.2606   1.0000
  16.500   0.6136   0.19250   0.18351  -0.0035   0.2558   1.0000
  16.750   0.6233   0.19563   0.18668  -0.0039   0.2482   1.0000
  17.000   0.6379   0.20100   0.19209  -0.0042   0.2440   1.0000
  17.250   0.6304   0.20122   0.19228  -0.0060   0.2371   1.0000
  17.500   0.6462   0.20557   0.19669  -0.0060   0.2309   1.0000
  17.750   0.6510   0.20918   0.20028  -0.0072   0.2277   1.0000
  18.000   0.6491   0.21013   0.20122  -0.0089   0.2206   1.0000
  18.250   0.6665   0.21508   0.20624  -0.0087   0.2150   1.0000
  18.500   0.6696   0.21821   0.20936  -0.0102   0.2124   1.0000
  18.750   0.6678   0.21897   0.21010  -0.0121   0.2057   1.0000
  19.000   0.6835   0.22355   0.21473  -0.0121   0.2000   1.0000
  19.250   0.6922   0.22817   0.21936  -0.0131   0.1977   1.0000
  19.500   0.6872   0.22787   0.21902  -0.0156   0.1927   1.0000
  19.750   0.6969   0.23100   0.22218  -0.0164   0.1870   1.0000
  20.000   0.7191   0.23950   0.23075  -0.0159   0.1834   1.0000
   0.000   0.4254   0.03208   0.02227  -0.0705   0.7912   1.0000
  -0.250   0.4103   0.03151   0.02174  -0.0723   0.8069   1.0000
  -0.500   0.3943   0.03100   0.02128  -0.0740   0.8231   1.0000
  -0.750   0.3769   0.03056   0.02088  -0.0754   0.8395   1.0000
  -1.000   0.3535   0.03030   0.02068  -0.0759   0.8555   1.0000
  -1.250   0.3238   0.03018   0.02065  -0.0752   0.8716   1.0000
  -1.500   0.2885   0.03017   0.02073  -0.0734   0.8875   1.0000
  -1.750   0.2474   0.03028   0.02095  -0.0703   0.9034   1.0000
  -2.000   0.1974   0.03054   0.02135  -0.0654   0.9189   1.0000
  -2.250   0.1366   0.03094   0.02192  -0.0582   0.9333   1.0000
  -2.500   0.0784   0.03129   0.02247  -0.0511   0.9487   1.0000
  -2.750   0.0220   0.03162   0.02303  -0.0440   0.9646   1.0000
  -3.000  -0.0344   0.03203   0.02371  -0.0364   0.9813   1.0000
  -3.250  -0.1772   0.03263   0.02495  -0.0137   0.9888   0.9635
  -3.500  -0.5376   0.02912   0.01904   0.0320   0.9827   0.3621
  -3.750  -0.6003   0.03017   0.01981   0.0390   0.9935   0.3036
  -4.000  -0.6422   0.03110   0.02054   0.0424   1.0000   0.2721
  -4.250  -0.6600   0.03197   0.02138   0.0413   1.0000   0.2546
  -4.500  -0.6751   0.03280   0.02235   0.0396   1.0000   0.2398
  -4.750  -0.6896   0.03380   0.02354   0.0378   1.0000   0.2274
  -5.000  -0.7052   0.03495   0.02468   0.0363   1.0000   0.2176
  -5.250  -0.7167   0.03602   0.02602   0.0339   1.0000   0.2080
  -5.500  -0.7296   0.03739   0.02741   0.0319   1.0000   0.2006
  -5.750  -0.7357   0.03882   0.02926   0.0287   1.0000   0.1945
  -6.000  -0.7455   0.04008   0.03055   0.0262   1.0000   0.1882
  -6.250  -0.7521   0.04191   0.03252   0.0234   1.0000   0.1841
  -6.500  -0.7490   0.04369   0.03475   0.0189   1.0000   0.1812
  -6.750  -0.7448   0.04550   0.03687   0.0144   1.0000   0.1785
  -7.000  -0.7390   0.04726   0.03888   0.0098   1.0000   0.1761
  -7.250  -0.7310   0.04905   0.04087   0.0050   1.0000   0.1745
  -7.500  -0.7190   0.05095   0.04296  -0.0003   1.0000   0.1740
  -7.750  -0.7043   0.05302   0.04522  -0.0058   1.0000   0.1739
  -8.000  -0.6878   0.05552   0.04792  -0.0111   1.0000   0.1744
  -8.250  -0.6700   0.05880   0.05140  -0.0156   1.0000   0.1759
  -8.500  -0.6521   0.06256   0.05534  -0.0191   1.0000   0.1776
  -8.750  -0.6354   0.06666   0.05956  -0.0217   1.0000   0.1803
  -9.000  -0.6251   0.07091   0.06385  -0.0234   1.0000   0.1829
  -9.000  -0.6251   0.07091   0.06385  -0.0234   1.0000   0.1829
  -9.100  -0.6257   0.07266   0.06561  -0.0237   1.0000   0.1838
  -9.200  -0.6353   0.07459   0.06752  -0.0235   1.0000   0.1849
  -9.500  -0.4256   0.10376   0.09670   0.0022   1.0000   0.3830
  -9.750  -0.4027   0.10500   0.09782   0.0020   1.0000   0.3683
 -10.000  -0.3996   0.10801   0.10077   0.0021   1.0000   0.3558
 -10.250  -0.4262   0.11282   0.10559   0.0019   1.0000   0.3447
 -10.500  -0.4267   0.11519   0.10793   0.0018   1.0000   0.3299
 -10.750  -0.4159   0.11776   0.11041   0.0025   1.0000   0.3194
 -11.000  -0.4619   0.12440   0.11714   0.0016   1.0000   0.3092
 -11.250  -0.4259   0.12434   0.11694   0.0033   1.0000   0.2995
 -11.500  -0.4585   0.13021   0.12284   0.0027   1.0000   0.2902
 -11.750  -0.4378   0.13091   0.12346   0.0042   1.0000   0.2797
 -12.000  -0.4714   0.13730   0.12987   0.0036   1.0000   0.2722
 -12.250  -0.4472   0.13750   0.12998   0.0056   1.0000   0.2632
 -12.500  -0.4900   0.14488   0.13745   0.0044   1.0000   0.2551
 -12.750  -0.4599   0.14446   0.13690   0.0071   1.0000   0.2498
 -13.000  -0.4734   0.14808   0.14052   0.0074   1.0000   0.2402
 -13.250  -0.4802   0.15218   0.14459   0.0083   1.0000   0.2350
 -13.500  -0.4760   0.15374   0.14612   0.0098   1.0000   0.2266
 -13.750  -0.5085   0.16061   0.15304   0.0091   1.0000   0.2203
 -14.000  -0.4951   0.16164   0.15398   0.0115   1.0000   0.2171
 -14.250  -0.4939   0.16337   0.15568   0.0130   1.0000   0.2094
 -14.500  -0.5376   0.17305   0.16546   0.0115   1.0000   0.2025
 -14.750  -0.5135   0.17118   0.16347   0.0148   1.0000   0.1999
 -15.000  -0.5134   0.17277   0.16503   0.0165   1.0000   0.1926
 -15.250  -0.5352   0.17835   0.17064   0.0164   1.0000   0.1869
 -15.500  -0.5461   0.18346   0.17572   0.0175   1.0000   0.1846
 -15.750  -0.5345   0.18243   0.17463   0.0204   1.0000   0.1800
 -16.000  -0.5426   0.18535   0.17755   0.0216   1.0000   0.1741
 -16.250  -0.5807   0.19625   0.18853   0.0203   1.0000   0.1690
 -16.500  -0.5659   0.19414   0.18632   0.0235   1.0000   0.1674
 -16.750  -0.5629   0.19438   0.18652   0.0261   1.0000   0.1622
 -17.000  -0.5729   0.19760   0.18975   0.0272   1.0000   0.1572
 -17.250  -0.5962   0.20496   0.19715   0.0269   1.0000   0.1535
 -17.500  -0.6008   0.20822   0.20036   0.0288   1.0000   0.1520
 -17.750  -0.5947   0.20689   0.19898   0.0320   1.0000   0.1488
 -18.000  -0.6011   0.20922   0.20130   0.0337   1.0000   0.1442
 -18.250  -0.6137   0.21308   0.20518   0.0345   1.0000   0.1401
 -18.500  -0.6415   0.22427   0.21639   0.0339   1.0000   0.1371
 -18.750  -0.6300   0.22011   0.21216   0.0377   1.0000   0.1356
 -19.000  -0.6326   0.22101   0.21305   0.0402   1.0000   0.1320
 -19.250  -0.6409   0.22378   0.21581   0.0418   1.0000   0.1282
 -19.500  -0.6525   0.22754   0.21958   0.0428   1.0000   0.1253
 -19.750  -0.6807   0.24003   0.23214   0.0419   1.0000   0.1227
 -20.000  -0.6739   0.23671   0.22873   0.0454   1.0000   0.1219
