  
       XFOIL         Version 6.99
  
 Calculated polar for: LWK 80-100                                      
  
 1 1 Reynolds number fixed          Mach number fixed         
  
 xtrf =   1.000 (top)        1.000 (bottom)  
 Mach =   0.000     Re =     0.050 e 6     Ncrit =   9.000
  
   alpha    CL        CD       CDp       CM     Top_Xtr  Bot_Xtr
  ------ -------- --------- --------- -------- -------- --------
   0.000  -0.0000   0.02217   0.01132  -0.0000   1.0000   1.0000
   0.250   0.0019   0.02217   0.01132   0.0033   1.0000   1.0000
   0.500   0.0038   0.02215   0.01131   0.0065   1.0000   1.0000
   0.750   0.0054   0.02213   0.01130   0.0099   1.0000   1.0000
   1.000   0.0068   0.02210   0.01129   0.0132   1.0000   1.0000
   1.250   0.0082   0.02207   0.01127   0.0165   1.0000   1.0000
   1.500   0.0104   0.02205   0.01126   0.0198   1.0000   1.0000
   1.750   0.0144   0.02207   0.01129   0.0226   1.0000   1.0000
   2.000   0.0210   0.02217   0.01140   0.0251   1.0000   1.0000
   2.250   0.0298   0.02235   0.01159   0.0271   1.0000   1.0000
   2.500   0.0406   0.02261   0.01188   0.0288   1.0000   1.0000
   2.750   0.0527   0.02294   0.01227   0.0302   1.0000   1.0000
   3.000   0.0659   0.02336   0.01274   0.0313   1.0000   1.0000
   3.250   0.0797   0.02384   0.01330   0.0322   1.0000   1.0000
   3.500   0.0939   0.02441   0.01395   0.0330   1.0000   1.0000
   3.750   0.1080   0.02505   0.01469   0.0336   1.0000   1.0000
   4.000   0.1889   0.02705   0.01717   0.0213   0.9691   1.0000
   4.250   0.5523   0.02189   0.01472  -0.0202   0.7574   1.0000
   4.500   0.5499   0.02124   0.01187  -0.0061   0.3716   1.0000
   4.750   0.5552   0.02355   0.01320  -0.0021   0.2761   1.0000
   5.000   0.5756   0.02536   0.01458  -0.0004   0.2269   1.0000
   5.250   0.6044   0.02728   0.01635   0.0002   0.1949   1.0000
   5.500   0.6273   0.02901   0.01811   0.0016   0.1719   1.0000
   5.750   0.6508   0.03113   0.02036   0.0029   0.1576   1.0000
   6.000   0.6690   0.03314   0.02258   0.0047   0.1450   1.0000
   6.250   0.6894   0.03590   0.02543   0.0062   0.1381   1.0000
   6.500   0.7030   0.03829   0.02839   0.0089   0.1328   1.0000
   6.750   0.7206   0.04120   0.03124   0.0101   0.1250   1.0000
   7.000   0.7314   0.04425   0.03480   0.0128   0.1241   1.0000
   7.250   0.7407   0.04775   0.03875   0.0154   0.1241   1.0000
   7.500   0.7454   0.05125   0.04272   0.0181   0.1237   1.0000
   7.750   0.7495   0.05497   0.04681   0.0204   0.1237   1.0000
   8.000   0.7476   0.05882   0.05117   0.0228   0.1272   1.0000
   8.250   0.7340   0.06391   0.05670   0.0247   0.1347   1.0000
   8.500   0.7165   0.06933   0.06245   0.0254   0.1465   1.0000
   8.750   0.7165   0.07629   0.06955   0.0245   0.1685   1.0000
   9.000   0.5383   0.09853   0.09140  -0.0086   0.3951   1.0000
   9.250   0.5437   0.10216   0.09501  -0.0083   0.3813   1.0000
   9.500   0.5532   0.10554   0.09839  -0.0073   0.3595   1.0000
   9.750   0.5575   0.10910   0.10193  -0.0070   0.3449   1.0000
   9.850   0.5701   0.11181   0.10467  -0.0067   0.3409   1.0000
   9.950   0.5558   0.11175   0.10454  -0.0071   0.3340   1.0000
  10.250   0.5627   0.11629   0.10906  -0.0069   0.3170   1.0000
  10.500   0.5644   0.11972   0.11246  -0.0071   0.3051   1.0000
  10.750   0.5693   0.12332   0.11604  -0.0069   0.2895   1.0000
  11.000   0.5750   0.12687   0.11957  -0.0068   0.2738   1.0000
  11.250   0.5774   0.13048   0.12315  -0.0072   0.2627   1.0000
  11.500   0.5877   0.13488   0.12754  -0.0071   0.2521   1.0000
  11.750   0.6129   0.14078   0.13352  -0.0059   0.2398   1.0000
  12.000   0.5883   0.14144   0.13407  -0.0088   0.2324   1.0000
  12.250   0.6073   0.14692   0.13957  -0.0083   0.2245   1.0000
  12.500   0.6230   0.15205   0.14473  -0.0076   0.2108   1.0000
  12.750   0.6033   0.15286   0.14543  -0.0109   0.2076   1.0000
  13.000   0.6238   0.15863   0.15123  -0.0100   0.1959   1.0000
  13.250   0.6089   0.15945   0.15197  -0.0129   0.1898   1.0000
  13.500   0.6324   0.16614   0.15871  -0.0119   0.1815   1.0000
  13.750   0.6191   0.16668   0.15917  -0.0150   0.1774   1.0000
  14.000   0.6357   0.17194   0.16446  -0.0147   0.1690   1.0000
  14.250   0.6355   0.17518   0.16765  -0.0166   0.1660   1.0000
  14.500   0.6333   0.17703   0.16946  -0.0187   0.1601   1.0000
  14.750   0.6648   0.18649   0.17900  -0.0171   0.1533   1.0000
  15.000   0.6500   0.18552   0.17793  -0.0207   0.1515   1.0000
  15.250   0.6501   0.18747   0.17986  -0.0229   0.1462   1.0000
  15.500   0.6799   0.19736   0.18985  -0.0213   0.1390   1.0000
  15.750   0.6656   0.19554   0.18793  -0.0252   0.1367   1.0000
  16.000   0.6687   0.19780   0.19017  -0.0274   0.1322   1.0000
  16.250   0.6998   0.20896   0.20141  -0.0254   0.1249   1.0000
  16.500   0.6892   0.20712   0.19950  -0.0291   0.1238   1.0000
  16.750   0.6894   0.20822   0.20055  -0.0320   0.1209   1.0000
  17.000   0.6964   0.21144   0.20377  -0.0336   0.1156   1.0000
  17.250   0.7164   0.21942   0.21182  -0.0329   0.1115   1.0000
  17.500   0.7209   0.22274   0.21508  -0.0350   0.1103   1.0000
  17.750   0.7191   0.22238   0.21467  -0.0385   0.1085   1.0000
  18.000   0.7241   0.22468   0.21696  -0.0408   0.1049   1.0000
  18.250   0.7326   0.22815   0.22043  -0.0423   0.1013   1.0000
  18.500   0.7453   0.23342   0.22577  -0.0429   0.0984   1.0000
  18.750   0.7594   0.24145   0.23380  -0.0434   0.0966   1.0000
  19.000   0.7587   0.24036   0.23266  -0.0469   0.0957   1.0000
  19.250   0.7624   0.24139   0.23367  -0.0499   0.0932   1.0000
  19.500   0.7696   0.24417   0.23645  -0.0520   0.0899   1.0000
  19.750   0.7797   0.24829   0.24058  -0.0531   0.0858   1.0000
  20.000   0.8045   0.26346   0.25583  -0.0514   0.0832   1.0000
   0.000  -0.0000   0.02217   0.01132  -0.0000   1.0000   1.0000
  -0.250  -0.0019   0.02217   0.01132  -0.0033   1.0000   1.0000
  -0.500  -0.0037   0.02215   0.01132  -0.0065   1.0000   1.0000
  -0.750  -0.0053   0.02213   0.01130  -0.0099   1.0000   1.0000
  -1.000  -0.0068   0.02210   0.01129  -0.0132   1.0000   1.0000
  -1.250  -0.0082   0.02207   0.01128  -0.0165   1.0000   1.0000
  -1.500  -0.0104   0.02205   0.01127  -0.0197   1.0000   1.0000
  -1.750  -0.0144   0.02208   0.01130  -0.0226   1.0000   1.0000
  -2.000  -0.0210   0.02218   0.01141  -0.0251   1.0000   1.0000
  -2.250  -0.0298   0.02236   0.01160  -0.0271   1.0000   1.0000
  -2.500  -0.0405   0.02262   0.01189  -0.0288   1.0000   1.0000
  -2.750  -0.0527   0.02296   0.01229  -0.0302   1.0000   1.0000
  -3.000  -0.0658   0.02337   0.01275  -0.0313   1.0000   1.0000
  -3.250  -0.0796   0.02385   0.01331  -0.0322   1.0000   1.0000
  -3.500  -0.0937   0.02442   0.01396  -0.0330   1.0000   1.0000
  -3.750  -0.1078   0.02507   0.01472  -0.0336   1.0000   1.0000
  -4.000  -0.1902   0.02709   0.01722  -0.0210   1.0000   0.9685
  -4.250  -0.5518   0.02187   0.01470   0.0201   1.0000   0.7563
  -4.500  -0.5489   0.02133   0.01191   0.0059   1.0000   0.3645
  -4.750  -0.5547   0.02362   0.01324   0.0020   1.0000   0.2728
  -5.000  -0.5750   0.02544   0.01462   0.0003   1.0000   0.2234
  -5.250  -0.6042   0.02733   0.01643  -0.0003   1.0000   0.1929
  -5.500  -0.6274   0.02908   0.01814  -0.0015   1.0000   0.1706
  -5.750  -0.6513   0.03121   0.02046  -0.0028   1.0000   0.1580
  -6.000  -0.6695   0.03328   0.02274  -0.0047   1.0000   0.1455
  -6.250  -0.6896   0.03595   0.02548  -0.0062   1.0000   0.1382
  -6.500  -0.7028   0.03829   0.02840  -0.0089   1.0000   0.1325
  -6.750  -0.7203   0.04126   0.03129  -0.0102   1.0000   0.1249
  -7.000  -0.7313   0.04437   0.03493  -0.0129   1.0000   0.1241
  -7.250  -0.7416   0.04780   0.03875  -0.0152   1.0000   0.1244
  -7.500  -0.7484   0.05143   0.04280  -0.0177   1.0000   0.1244
  -7.750  -0.7520   0.05506   0.04682  -0.0201   1.0000   0.1242
  -8.000  -0.7550   0.05898   0.05112  -0.0222   1.0000   0.1256
  -8.250  -0.7366   0.06392   0.05668  -0.0245   1.0000   0.1358
  -8.500  -0.6406   0.05686   0.05045  -0.0292   1.0000   0.1499
  -8.750  -0.5980   0.06286   0.05654  -0.0295   1.0000   0.1626
  -9.000  -0.5528   0.07017   0.06378  -0.0261   1.0000   0.1755
  -9.250  -0.5415   0.10191   0.09476   0.0081   1.0000   0.3793
  -9.500  -0.5505   0.10547   0.09832   0.0073   1.0000   0.3602
  -9.750  -0.5586   0.10936   0.10220   0.0068   1.0000   0.3443
 -10.000  -0.5585   0.11265   0.10545   0.0068   1.0000   0.3312
 -10.250  -0.5612   0.11623   0.10900   0.0068   1.0000   0.3174
 -10.500  -0.5640   0.11979   0.11254   0.0068   1.0000   0.3039
 -10.750  -0.5701   0.12341   0.11613   0.0066   1.0000   0.2880
 -11.000  -0.5719   0.12693   0.11962   0.0069   1.0000   0.2762
 -11.250  -0.5762   0.13046   0.12313   0.0070   1.0000   0.2619
 -11.500  -0.5882   0.13500   0.12767   0.0069   1.0000   0.2524
 -11.750  -0.6064   0.14001   0.13275   0.0062   1.0000   0.2402
 -12.250  -0.6067   0.14696   0.13962   0.0081   1.0000   0.2245
 -12.500  -0.6006   0.14910   0.14171   0.0096   1.0000   0.2139
 -12.250  -0.6067   0.14696   0.13962   0.0081   1.0000   0.2245
 -12.350  -0.5945   0.14687   0.13947   0.0096   1.0000   0.2214
 -12.450  -0.5946   0.14801   0.14060   0.0099   1.0000   0.2168
 -12.750  -0.6023   0.15284   0.14541   0.0107   1.0000   0.2076
 -13.000  -0.6239   0.15879   0.15140   0.0097   1.0000   0.1960
 -13.250  -0.6083   0.15956   0.15208   0.0127   1.0000   0.1913
 -13.500  -0.6337   0.16638   0.15895   0.0115   1.0000   0.1817
 -13.750  -0.6172   0.16657   0.15904   0.0148   1.0000   0.1768
 -14.000  -0.6309   0.17113   0.16363   0.0150   1.0000   0.1696
 -14.250  -0.6350   0.17521   0.16768   0.0164   1.0000   0.1661
 -14.500  -0.6322   0.17696   0.16939   0.0185   1.0000   0.1598
 -14.750  -0.6642   0.18651   0.17906   0.0169   1.0000   0.1533
 -15.000  -0.6490   0.18541   0.17783   0.0205   1.0000   0.1515
 -15.250  -0.6490   0.18737   0.17978   0.0227   1.0000   0.1459
 -15.500  -0.6811   0.19772   0.19022   0.0209   1.0000   0.1390
 -15.750  -0.6675   0.19600   0.18841   0.0247   1.0000   0.1375
 -16.000  -0.6676   0.19760   0.18997   0.0271   1.0000   0.1320
 -16.250  -0.6846   0.20346   0.19589   0.0269   1.0000   0.1261
 -16.500  -0.6903   0.20746   0.19984   0.0286   1.0000   0.1241
 -16.750  -0.6884   0.20796   0.20029   0.0318   1.0000   0.1210
 -17.000  -0.6949   0.21095   0.20327   0.0335   1.0000   0.1163
 -17.250  -0.7114   0.21734   0.20972   0.0333   1.0000   0.1119
 -17.500  -0.7220   0.22309   0.21545   0.0345   1.0000   0.1105
 -17.750  -0.7185   0.22212   0.21441   0.0381   1.0000   0.1087
 -18.000  -0.7230   0.22420   0.21648   0.0406   1.0000   0.1050
 -18.250  -0.7312   0.22746   0.21974   0.0422   1.0000   0.1018
 -18.500  -0.7438   0.23268   0.22503   0.0427   1.0000   0.0985
 -18.750  -0.7610   0.24206   0.23442   0.0428   1.0000   0.0967
 -19.000  -0.7572   0.23955   0.23186   0.0468   1.0000   0.0956
 -19.250  -0.7615   0.24078   0.23306   0.0496   1.0000   0.0935
 -19.500  -0.7684   0.24343   0.23571   0.0518   1.0000   0.0902
 -19.750  -0.7772   0.24680   0.23910   0.0534   1.0000   0.0872
 -20.000  -0.7926   0.25445   0.24680   0.0532   1.0000   0.0840
