  
       XFOIL         Version 6.99
  
 Calculated polar for: FX 79-L-100                                     
  
 1 1 Reynolds number fixed          Mach number fixed         
  
 xtrf =   1.000 (top)        1.000 (bottom)  
 Mach =   0.000     Re =     0.050 e 6     Ncrit =   9.000
  
   alpha    CL        CD       CDp       CM     Top_Xtr  Bot_Xtr
  ------ -------- --------- --------- -------- -------- --------
   0.000  -0.0000   0.01905   0.00944  -0.0000   1.0000   1.0000
   0.250  -0.0351   0.01894   0.00931   0.0068   1.0000   1.0000
   0.500  -0.0502   0.01891   0.00918   0.0112   1.0000   1.0000
   0.750  -0.0493   0.01911   0.00926   0.0135   1.0000   1.0000
   1.000  -0.0414   0.01944   0.00949   0.0149   1.0000   1.0000
   1.250  -0.0302   0.01984   0.00982   0.0159   1.0000   1.0000
   1.500   0.0031   0.02050   0.01048   0.0128   0.9923   1.0000
   1.750   0.0566   0.02144   0.01147   0.0061   0.9777   1.0000
   2.000   0.1040   0.02223   0.01235   0.0008   0.9617   1.0000
   2.250   0.1527   0.02303   0.01326  -0.0045   0.9447   1.0000
   2.500   0.2044   0.02379   0.01418  -0.0101   0.9266   1.0000
   2.750   0.2654   0.02447   0.01511  -0.0169   0.9075   1.0000
   3.000   0.3156   0.02495   0.01583  -0.0212   0.8834   1.0000
   3.250   0.3971   0.02475   0.01610  -0.0290   0.8508   1.0000
   3.500   0.4612   0.02390   0.01562  -0.0313   0.8082   1.0000
   3.750   0.4982   0.02310   0.01505  -0.0284   0.7660   1.0000
   4.000   0.5228   0.02237   0.01442  -0.0235   0.7238   1.0000
   4.250   0.5402   0.02174   0.01385  -0.0180   0.6771   1.0000
   4.500   0.5544   0.02092   0.01305  -0.0117   0.6158   1.0000
   4.750   0.5597   0.02011   0.01189  -0.0037   0.4902   1.0000
   5.000   0.5628   0.02177   0.01193   0.0023   0.3120   1.0000
   5.250   0.5797   0.02386   0.01338   0.0044   0.2477   1.0000
   5.500   0.6026   0.02579   0.01496   0.0058   0.2140   1.0000
   5.750   0.6266   0.02761   0.01678   0.0069   0.1893   1.0000
   6.000   0.6522   0.02967   0.01886   0.0078   0.1735   1.0000
   6.250   0.6756   0.03176   0.02108   0.0088   0.1601   1.0000
   6.500   0.6992   0.03437   0.02383   0.0097   0.1521   1.0000
   6.750   0.7194   0.03672   0.02653   0.0110   0.1436   1.0000
   7.000   0.7392   0.03978   0.02979   0.0120   0.1384   1.0000
   7.250   0.7540   0.04310   0.03371   0.0136   0.1365   1.0000
   7.500   0.7648   0.04657   0.03771   0.0151   0.1339   1.0000
   7.750   0.7733   0.05024   0.04182   0.0164   0.1318   1.0000
   8.000   0.7762   0.05473   0.04677   0.0175   0.1332   1.0000
   8.250   0.7774   0.05957   0.05194   0.0181   0.1362   1.0000
   8.500   0.7847   0.06463   0.05712   0.0185   0.1390   1.0000
   8.750   0.7425   0.07177   0.06479   0.0165   0.1495   1.0000
   9.000   0.7058   0.07919   0.07228   0.0127   0.1598   1.0000
   9.250   0.6660   0.09270   0.08567   0.0008   0.1998   1.0000
   9.350   0.5724   0.10795   0.10058  -0.0231   0.3541   1.0000
   9.450   0.5763   0.10955   0.10216  -0.0233   0.3514   1.0000
   9.750   0.5787   0.11404   0.10664  -0.0239   0.3420   1.0000
  10.000   0.6017   0.11934   0.11199  -0.0235   0.3316   1.0000
  10.250   0.6067   0.12277   0.11540  -0.0232   0.3166   1.0000
  10.500   0.6150   0.12656   0.11920  -0.0230   0.3028   1.0000
  10.750   0.5993   0.12826   0.12081  -0.0244   0.2923   1.0000
  11.000   0.6070   0.13246   0.12500  -0.0247   0.2847   1.0000
  11.250   0.6298   0.13782   0.13042  -0.0240   0.2729   1.0000
  11.500   0.6119   0.13915   0.13164  -0.0259   0.2630   1.0000
  11.750   0.6213   0.14350   0.13598  -0.0262   0.2552   1.0000
  12.000   0.6412   0.14879   0.14130  -0.0254   0.2423   1.0000
  12.250   0.6275   0.14994   0.14238  -0.0274   0.2325   1.0000
  12.500   0.6383   0.15468   0.14712  -0.0278   0.2261   1.0000
  12.750   0.6376   0.15716   0.14960  -0.0290   0.2172   1.0000
  13.000   0.6492   0.16223   0.15467  -0.0294   0.2116   1.0000
  13.250   0.6455   0.16420   0.15661  -0.0311   0.2035   1.0000
  13.500   0.6635   0.17026   0.16270  -0.0310   0.1974   1.0000
  13.750   0.6558   0.17132   0.16371  -0.0332   0.1889   1.0000
  14.000   0.6772   0.17796   0.17038  -0.0327   0.1829   1.0000
  14.250   0.6661   0.17821   0.17055  -0.0357   0.1772   1.0000
  14.500   0.7009   0.18806   0.18052  -0.0337   0.1689   1.0000
  14.750   0.6825   0.18638   0.17873  -0.0376   0.1666   1.0000
  15.000   0.6844   0.18871   0.18105  -0.0395   0.1601   1.0000
  15.250   0.7191   0.19962   0.19204  -0.0375   0.1543   1.0000
  15.500   0.7018   0.19715   0.18948  -0.0416   0.1524   1.0000
  15.750   0.7032   0.19905   0.19135  -0.0439   0.1466   1.0000
  16.000   0.7365   0.21051   0.20290  -0.0417   0.1397   1.0000
  16.250   0.7240   0.20819   0.20049  -0.0457   0.1384   1.0000
  16.500   0.7235   0.20926   0.20152  -0.0486   0.1329   1.0000
  16.750   0.7345   0.21331   0.20559  -0.0493   0.1281   1.0000
  17.000   0.7564   0.22289   0.21521  -0.0486   0.1251   1.0000
  17.250   0.7489   0.22094   0.21320  -0.0527   0.1234   1.0000
  17.500   0.7525   0.22276   0.21501  -0.0552   0.1198   1.0000
  17.750   0.7611   0.22626   0.21854  -0.0567   0.1153   1.0000
  18.000   0.7764   0.23250   0.22482  -0.0567   0.1121   1.0000
  18.250   0.7872   0.23862   0.23092  -0.0578   0.1106   1.0000
  18.500   0.7856   0.23751   0.22977  -0.0616   0.1091   1.0000
  18.750   0.7901   0.23936   0.23160  -0.0643   0.1046   1.0000
  19.000   0.7990   0.24277   0.23502  -0.0658   0.1012   1.0000
  19.250   0.8145   0.24988   0.24218  -0.0656   0.0978   1.0000
  19.500   0.8237   0.25528   0.24756  -0.0671   0.0966   1.0000
  19.750   0.8236   0.25374   0.24597  -0.0711   0.0951   1.0000
  20.000   0.8294   0.25559   0.24785  -0.0738   0.0924   1.0000
   0.000  -0.0000   0.01905   0.00944  -0.0000   1.0000   1.0000
  -0.250   0.0349   0.01894   0.00930  -0.0069   1.0000   1.0000
  -0.500   0.0502   0.01891   0.00918  -0.0112   1.0000   1.0000
  -0.750   0.0492   0.01911   0.00927  -0.0135   1.0000   1.0000
  -1.000   0.0413   0.01944   0.00950  -0.0149   1.0000   1.0000
  -1.250   0.0302   0.01984   0.00983  -0.0159   1.0000   1.0000
  -1.500  -0.0028   0.02050   0.01048  -0.0128   1.0000   0.9924
  -1.750  -0.0564   0.02144   0.01147  -0.0062   1.0000   0.9778
  -2.000  -0.1039   0.02224   0.01236  -0.0008   1.0000   0.9617
  -2.250  -0.1530   0.02303   0.01327   0.0046   1.0000   0.9445
  -2.500  -0.2040   0.02379   0.01418   0.0100   1.0000   0.9267
  -2.750  -0.2654   0.02447   0.01512   0.0168   1.0000   0.9075
  -3.000  -0.3153   0.02496   0.01584   0.0211   1.0000   0.8835
  -3.250  -0.3982   0.02472   0.01608   0.0291   1.0000   0.8505
  -3.500  -0.4620   0.02385   0.01560   0.0312   1.0000   0.8073
  -3.750  -0.4981   0.02309   0.01504   0.0284   1.0000   0.7658
  -4.000  -0.5232   0.02241   0.01447   0.0237   1.0000   0.7249
  -4.250  -0.5406   0.02175   0.01387   0.0181   1.0000   0.6778
  -4.500  -0.5544   0.02092   0.01306   0.0117   1.0000   0.6157
  -4.750  -0.5598   0.02011   0.01190   0.0037   1.0000   0.4907
  -5.000  -0.5629   0.02175   0.01192  -0.0023   1.0000   0.3133
  -5.250  -0.5797   0.02385   0.01337  -0.0044   1.0000   0.2481
  -5.500  -0.6026   0.02579   0.01496  -0.0058   1.0000   0.2139
  -5.750  -0.6266   0.02761   0.01678  -0.0069   1.0000   0.1893
  -6.000  -0.6522   0.02967   0.01886  -0.0078   1.0000   0.1736
  -6.250  -0.6756   0.03178   0.02109  -0.0088   1.0000   0.1599
  -6.500  -0.6992   0.03437   0.02383  -0.0097   1.0000   0.1521
  -6.750  -0.7193   0.03672   0.02654  -0.0110   1.0000   0.1436
  -7.000  -0.7390   0.03981   0.02985  -0.0121   1.0000   0.1383
  -7.250  -0.7537   0.04313   0.03375  -0.0137   1.0000   0.1364
  -7.500  -0.7646   0.04661   0.03776  -0.0152   1.0000   0.1339
  -7.750  -0.7730   0.05030   0.04188  -0.0165   1.0000   0.1317
  -8.000  -0.7758   0.05477   0.04682  -0.0175   1.0000   0.1331
  -8.250  -0.7765   0.05965   0.05203  -0.0182   1.0000   0.1361
  -8.500  -0.7832   0.06459   0.05709  -0.0185   1.0000   0.1388
  -8.750  -0.7416   0.07183   0.06484  -0.0165   1.0000   0.1495
  -9.250  -0.5934   0.10842   0.10114   0.0226   1.0000   0.3619
  -9.350  -0.5717   0.10791   0.10052   0.0230   1.0000   0.3538
  -9.450  -0.5752   0.10954   0.10216   0.0231   1.0000   0.3514
  -9.750  -0.5771   0.11397   0.10656   0.0237   1.0000   0.3413
  -9.500  -0.5780   0.11036   0.10298   0.0232   1.0000   0.3504
  -9.700  -0.5913   0.11463   0.10728   0.0234   1.0000   0.3462
 -10.000  -0.6015   0.11937   0.11203   0.0233   1.0000   0.3317
 -10.250  -0.6071   0.12295   0.11559   0.0230   1.0000   0.3168
 -10.500  -0.6087   0.12589   0.11851   0.0231   1.0000   0.3033
 -10.750  -0.5972   0.12814   0.12068   0.0243   1.0000   0.2931
 -10.500  -0.6087   0.12589   0.11851   0.0231   1.0000   0.3033
 -10.600  -0.6038   0.12712   0.11970   0.0237   1.0000   0.3007
 -10.700  -0.5951   0.12747   0.12000   0.0243   1.0000   0.2951
 -11.000  -0.6038   0.13226   0.12478   0.0246   1.0000   0.2839
 -11.250  -0.6310   0.13827   0.13086   0.0236   1.0000   0.2724
 -11.500  -0.6101   0.13903   0.13151   0.0257   1.0000   0.2636
 -11.750  -0.6173   0.14306   0.13553   0.0261   1.0000   0.2541
 -12.000  -0.6378   0.14843   0.14094   0.0254   1.0000   0.2421
 -12.250  -0.6260   0.14979   0.14224   0.0272   1.0000   0.2327
 -12.500  -0.6365   0.15455   0.14701   0.0276   1.0000   0.2261
