  
       XFOIL         Version 6.99
  
 Calculated polar for: SPICA  11.73% smoothed                          
  
 1 1 Reynolds number fixed          Mach number fixed         
  
 xtrf =   1.000 (top)        1.000 (bottom)  
 Mach =   0.000     Re =     0.050 e 6     Ncrit =   9.000
  
   alpha    CL        CD       CDp       CM     Top_Xtr  Bot_Xtr
  ------ -------- --------- --------- -------- -------- --------
   0.000   0.1475   0.04378   0.03294  -0.0674   0.8374   0.1605
   0.250   0.1855   0.04359   0.03261  -0.0690   0.8294   0.1654
   0.500   0.2082   0.04389   0.03273  -0.0686   0.8207   0.1736
   0.750   0.2423   0.04388   0.03274  -0.0697   0.8125   0.1881
   1.000   0.2643   0.04411   0.03300  -0.0694   0.8037   0.2053
   1.250   0.2935   0.04400   0.03326  -0.0701   0.7955   0.2609
   1.500   0.3461   0.04257   0.03326  -0.0735   0.7856   1.0000
   1.750   0.3593   0.04378   0.03419  -0.0722   0.7764   1.0000
   2.000   0.4026   0.04463   0.03469  -0.0744   0.7667   1.0000
   2.250   0.4012   0.04605   0.03599  -0.0716   0.7565   1.0000
   2.500   0.4253   0.04718   0.03695  -0.0716   0.7462   1.0000
   2.750   0.4560   0.04817   0.03778  -0.0723   0.7357   1.0000
   3.000   0.4612   0.04967   0.03918  -0.0704   0.7247   1.0000
   3.250   0.4849   0.05084   0.04024  -0.0703   0.7137   1.0000
   3.500   0.5246   0.05160   0.04088  -0.0715   0.7023   1.0000
   3.750   0.5243   0.05332   0.04256  -0.0693   0.6902   1.0000
   4.000   0.5386   0.05479   0.04397  -0.0684   0.6785   1.0000
   4.250   0.5667   0.05584   0.04495  -0.0685   0.6667   1.0000
   4.500   0.5961   0.05679   0.04586  -0.0686   0.6548   1.0000
   4.750   0.5972   0.05876   0.04781  -0.0668   0.6422   1.0000
   5.000   0.6094   0.06045   0.04947  -0.0659   0.6303   1.0000
   5.250   0.6348   0.06158   0.05059  -0.0656   0.6183   1.0000
   5.500   0.6653   0.06246   0.05146  -0.0656   0.6066   1.0000
   5.750   0.6602   0.06502   0.05403  -0.0639   0.5942   1.0000
   6.000   0.6697   0.06700   0.05601  -0.0630   0.5824   1.0000
   6.250   0.6989   0.06802   0.05704  -0.0629   0.5716   1.0000
   6.500   0.7068   0.07014   0.05918  -0.0620   0.5604   1.0000
   6.750   0.7043   0.07296   0.06203  -0.0610   0.5493   1.0000
   7.000   0.7276   0.07441   0.06350  -0.0607   0.5393   1.0000
   7.250   0.7322   0.07696   0.06608  -0.0600   0.5294   1.0000
   7.500   0.7311   0.08001   0.06914  -0.0594   0.5200   1.0000
   7.750   0.7705   0.08043   0.06964  -0.0592   0.5101   1.0000
   8.000   0.7414   0.08561   0.07483  -0.0588   0.5037   1.0000
   8.250   0.7718   0.08671   0.07598  -0.0585   0.4938   1.0000
   8.500   0.7511   0.09156   0.08087  -0.0585   0.4893   1.0000
   8.750   0.7865   0.09244   0.08181  -0.0582   0.4791   1.0000
   9.000   0.7648   0.09758   0.08698  -0.0586   0.4764   1.0000
   9.250   0.7583   0.10195   0.09141  -0.0592   0.4758   1.0000
   9.500   0.7602   0.10627   0.09579  -0.0602   0.4777   1.0000
   9.750   0.7709   0.11043   0.10004  -0.0613   0.4795   1.0000
   9.750   0.7906   0.10767   0.09728  -0.0597   0.4644   1.0000
  10.700   0.7223   0.12893   0.11876  -0.0666   0.5236   1.0000
  11.000   0.7381   0.13252   0.12244  -0.0671   0.5123   1.0000
  10.750   0.7186   0.12911   0.11894  -0.0664   0.5211   1.0000
  10.850   0.7219   0.13011   0.11997  -0.0665   0.5166   1.0000
  10.950   0.7316   0.13159   0.12148  -0.0668   0.5135   1.0000
  11.250   0.7343   0.13515   0.12510  -0.0672   0.5057   1.0000
  11.100   0.7534   0.13499   0.12494  -0.0678   0.5104   1.0000
  11.200   0.7384   0.13501   0.12496  -0.0673   0.5082   1.0000
  11.500   0.7605   0.13910   0.12915  -0.0680   0.4958   1.0000
  11.250   0.7343   0.13515   0.12510  -0.0672   0.5057   1.0000
  11.350   0.7373   0.13611   0.12609  -0.0672   0.5012   1.0000
  11.450   0.7498   0.13774   0.12777  -0.0676   0.4973   1.0000
  11.750   0.7496   0.14087   0.13095  -0.0678   0.4873   1.0000
  12.250   0.7653   0.14693   0.13714  -0.0688   0.4714   1.0000
  12.500   0.7899   0.15158   0.14191  -0.0696   0.4637   1.0000
  12.750   0.7836   0.15305   0.14342  -0.0698   0.4538   1.0000
  12.500   0.7899   0.15159   0.14192  -0.0696   0.4637   1.0000
  12.600   0.7778   0.15138   0.14171  -0.0696   0.4598   1.0000
  12.700   0.7802   0.15235   0.14270  -0.0697   0.4554   1.0000
  13.000   0.8007   0.15743   0.14789  -0.0707   0.4480   1.0000
  13.250   0.8029   0.15942   0.14994  -0.0710   0.4369   1.0000
  13.500   0.8066   0.16250   0.15308  -0.0718   0.4300   1.0000
  13.750   0.8217   0.16595   0.15665  -0.0724   0.4207   1.0000
  14.000   0.8207   0.16856   0.15931  -0.0733   0.4139   1.0000
  14.250   0.8458   0.17332   0.16421  -0.0737   0.4041   1.0000
  14.000   0.8207   0.16855   0.15930  -0.0733   0.4139   1.0000
  14.100   0.8238   0.16954   0.16032  -0.0735   0.4093   1.0000
  14.200   0.8353   0.17147   0.16231  -0.0736   0.4055   1.0000
  14.500   0.8352   0.17447   0.16536  -0.0748   0.3964   1.0000
  14.750   0.8593   0.17956   0.17060  -0.0754   0.3889   1.0000
  15.000   0.8501   0.18072   0.17177  -0.0767   0.3812   1.0000
  15.250   0.8793   0.18699   0.17822  -0.0770   0.3727   1.0000
  15.500   0.8657   0.18688   0.17811  -0.0785   0.3645   1.0000
  15.750   0.8919   0.19323   0.18461  -0.0789   0.3574   1.0000
  16.000   0.8818   0.19318   0.18458  -0.0805   0.3480   1.0000
  16.250   0.8970   0.19801   0.18951  -0.0813   0.3412   1.0000
  16.500   0.9017   0.20009   0.19168  -0.0823   0.3302   1.0000
  16.750   0.9033   0.20276   0.19440  -0.0839   0.3218   1.0000
  17.000   0.9210   0.20790   0.19968  -0.0842   0.3113   1.0000
  17.250   0.9354   0.21235   0.20427  -0.0846   0.2970   1.0000
  17.500   0.9443   0.21573   0.20774  -0.0853   0.2821   1.0000
  17.750   0.9509   0.21881   0.21088  -0.0862   0.2671   1.0000
  18.000   0.9577   0.22201   0.21413  -0.0871   0.2522   1.0000
  18.250   0.9505   0.22244   0.21455  -0.0899   0.2421   1.0000
  18.500   0.9550   0.22596   0.21809  -0.0915   0.2317   1.0000
  18.750   0.9695   0.23115   0.22333  -0.0919   0.2218   1.0000
  19.000   0.9703   0.23306   0.22525  -0.0942   0.2127   1.0000
  19.250   0.9810   0.23798   0.23021  -0.0952   0.2070   1.0000
  19.500   0.9816   0.23995   0.23219  -0.0978   0.2000   1.0000
  19.750   1.0049   0.24792   0.24025  -0.0969   0.1940   1.0000
  20.000   0.9968   0.24774   0.24002  -0.1009   0.1915   1.0000
   0.000   0.1475   0.04378   0.03294  -0.0674   0.8374   0.1605
  -0.250   0.1264   0.04388   0.03317  -0.0681   0.8452   0.1594
  -0.500   0.0922   0.04446   0.03393  -0.0668   0.8529   0.1578
  -0.750   0.0670   0.04484   0.03455  -0.0668   0.8606   0.1572
  -1.000   0.0384   0.04549   0.03545  -0.0663   0.8678   0.1576
  -1.250   0.0047   0.04592   0.03662  -0.0656   0.8756   0.1672
  -1.500  -0.0204   0.04736   0.03819  -0.0654   0.8826   0.1738
  -1.750  -0.0638   0.04865   0.04046  -0.0630   0.8898   0.2018
  -2.500  -0.0803   0.05855   0.05356  -0.0049   0.9208   0.8270
  -2.750  -0.0269   0.05799   0.05288  -0.0128   0.9322   0.8744
  -3.000   0.0299   0.05664   0.05139  -0.0227   0.9451   0.9242
  -3.250   0.0896   0.05444   0.04907  -0.0351   0.9601   0.9771
  -3.500   0.1007   0.05459   0.04915  -0.0382   0.9753   1.0000
  -3.750   0.0661   0.05739   0.05198  -0.0308   0.9868   1.0000
  -4.000  -0.3628   0.07725   0.07243  -0.0035   0.9582   0.4281
  -4.250  -0.3793   0.07958   0.07473  -0.0058   0.9654   0.3794
  -4.500  -0.3926   0.08197   0.07709  -0.0076   0.9729   0.3447
  -4.750  -0.4085   0.08468   0.07979  -0.0074   0.9808   0.3116
  -5.000  -0.4251   0.08789   0.08299  -0.0052   0.9887   0.2861
  -5.250  -0.4439   0.09097   0.08610  -0.0018   0.9971   0.2633
  -5.000  -0.4251   0.08788   0.08299  -0.0052   0.9887   0.2861
  -5.100  -0.4359   0.08907   0.08417  -0.0056   0.9918   0.2766
  -5.200  -0.4391   0.09042   0.08553  -0.0026   0.9954   0.2685
  -5.500  -0.4451   0.09358   0.08867  -0.0009   1.0000   0.2508
  -5.750  -0.4554   0.09658   0.09162  -0.0062   1.0000   0.2413
  -6.000  -0.4275   0.09719   0.09216  -0.0043   1.0000   0.2369
  -6.250  -0.4106   0.09807   0.09295  -0.0059   1.0000   0.2301
  -6.500  -0.4215   0.10165   0.09648  -0.0102   1.0000   0.2234
  -6.750  -0.3876   0.10108   0.09578  -0.0114   1.0000   0.2219
  -7.000  -0.3536   0.10036   0.09489  -0.0153   1.0000   0.2208
  -7.250  -0.3208   0.09952   0.09387  -0.0202   1.0000   0.2196
  -7.500  -0.2930   0.09904   0.09319  -0.0248   1.0000   0.2171
  -7.750  -0.3224   0.10457   0.09872  -0.0270   1.0000   0.2069
  -8.000  -0.2882   0.10349   0.09738  -0.0301   1.0000   0.2059
  -8.250  -0.2662   0.10340   0.09706  -0.0311   1.0000   0.2008
  -8.500  -0.3045   0.11046   0.10418  -0.0336   1.0000   0.1907
  -8.750  -0.2746   0.10931   0.10278  -0.0333   1.0000   0.1890
  -9.000  -0.2632   0.11005   0.10337  -0.0330   1.0000   0.1829
  -9.250  -0.2997   0.11760   0.11098  -0.0357   1.0000   0.1740
  -9.500  -0.2747   0.11640   0.10957  -0.0341   1.0000   0.1721
  -9.750  -0.2682   0.11752   0.11057  -0.0334   1.0000   0.1661
 -10.000  -0.3050   0.12582   0.11893  -0.0362   1.0000   0.1575
 -10.250  -0.2855   0.12485   0.11780  -0.0341   1.0000   0.1561
 -10.500  -0.2775   0.12554   0.11838  -0.0327   1.0000   0.1513
 -10.750  -0.2838   0.12837   0.12117  -0.0326   1.0000   0.1459
 -11.000  -0.3178   0.13745   0.13028  -0.0350   1.0000   0.1410
 -11.250  -0.3026   0.13653   0.12924  -0.0326   1.0000   0.1400
 -11.500  -0.2952   0.13687   0.12949  -0.0308   1.0000   0.1367
 -11.750  -0.2986   0.13925   0.13183  -0.0300   1.0000   0.1322
 -12.000  -0.3091   0.14295   0.13552  -0.0300   1.0000   0.1279
 -12.250  -0.3366   0.15186   0.14444  -0.0314   1.0000   0.1246
 -12.500  -0.3250   0.15078   0.14326  -0.0290   1.0000   0.1236
 -12.750  -0.3201   0.15106   0.14347  -0.0270   1.0000   0.1204
 -13.000  -0.3246   0.15347   0.14584  -0.0260   1.0000   0.1162
 -13.250  -0.3346   0.15708   0.14943  -0.0257   1.0000   0.1121
 -13.500  -0.3676   0.16856   0.16096  -0.0274   1.0000   0.1087
 -13.750  -0.3583   0.16726   0.15957  -0.0250   1.0000   0.1082
 -14.000  -0.3534   0.16676   0.15901  -0.0228   1.0000   0.1068
 -14.250  -0.3552   0.16816   0.16037  -0.0211   1.0000   0.1040
 -14.500  -0.3612   0.17072   0.16290  -0.0200   1.0000   0.1011
 -14.750  -0.3691   0.17378   0.16595  -0.0190   1.0000   0.0983
 -15.000  -0.3811   0.17821   0.17037  -0.0187   1.0000   0.0956
 -15.250  -0.4063   0.18911   0.18127  -0.0193   1.0000   0.0933
 -15.500  -0.3995   0.18696   0.17906  -0.0168   1.0000   0.0927
 -15.750  -0.3984   0.18639   0.17844  -0.0145   1.0000   0.0911
 -16.000  -0.4032   0.18812   0.18014  -0.0128   1.0000   0.0883
 -16.250  -0.4105   0.19080   0.18282  -0.0114   1.0000   0.0859
 -16.500  -0.4189   0.19390   0.18589  -0.0103   1.0000   0.0835
 -16.750  -0.4293   0.19786   0.18985  -0.0095   1.0000   0.0815
 -17.250  -0.4573   0.21132   0.20329  -0.0084   1.0000   0.0790
 -17.500  -0.4556   0.20937   0.20129  -0.0058   1.0000   0.0784
 -17.750  -0.4582   0.20920   0.20108  -0.0034   1.0000   0.0771
 -18.000  -0.4647   0.21103   0.20289  -0.0015   1.0000   0.0750
 -18.250  -0.4725   0.21360   0.20545   0.0001   1.0000   0.0728
 -18.500  -0.4810   0.21653   0.20838   0.0015   1.0000   0.0707
 -18.750  -0.4905   0.22000   0.21185   0.0026   1.0000   0.0690
 -19.000  -0.5028   0.22564   0.21749   0.0033   1.0000   0.0675
 -19.250  -0.5211   0.23669   0.22854   0.0034   1.0000   0.0665
 -19.500  -0.5213   0.23434   0.22614   0.0061   1.0000   0.0662
 -19.750  -0.5242   0.23327   0.22504   0.0087   1.0000   0.0656
 -20.000  -0.5302   0.23415   0.22590   0.0110   1.0000   0.0645
