  
       XFOIL         Version 6.99
  
 Calculated polar for: NACA6409 9%                                     
  
 1 1 Reynolds number fixed          Mach number fixed         
  
 xtrf =   1.000 (top)        1.000 (bottom)  
 Mach =   0.000     Re =     0.050 e 6     Ncrit =   9.000
  
   alpha    CL        CD       CDp       CM     Top_Xtr  Bot_Xtr
  ------ -------- --------- --------- -------- -------- --------
   0.000   0.2639   0.04301   0.03283  -0.1075   0.9007   0.2462
   0.250   0.2918   0.04284   0.03244  -0.1083   0.8905   0.2725
   0.500   0.3299   0.04275   0.03212  -0.1105   0.8816   0.3145
   0.750   0.3678   0.04252   0.03189  -0.1127   0.8727   0.3743
   1.000   0.3969   0.04218   0.03201  -0.1137   0.8639   0.4660
   1.250   0.4376   0.04123   0.03177  -0.1155   0.8561   1.0000
   1.500   0.4529   0.04230   0.03249  -0.1146   0.8459   1.0000
   1.750   0.4794   0.04340   0.03329  -0.1152   0.8374   1.0000
   2.000   0.5075   0.04445   0.03410  -0.1161   0.8286   1.0000
   2.250   0.5233   0.04569   0.03520  -0.1155   0.8197   1.0000
   2.500   0.5600   0.04671   0.03603  -0.1174   0.8122   1.0000
   2.750   0.5668   0.04814   0.03738  -0.1157   0.8032   1.0000
   3.000   0.5999   0.04926   0.03837  -0.1172   0.7959   1.0000
   3.250   0.6077   0.05078   0.03985  -0.1157   0.7875   1.0000
   3.500   0.6350   0.05205   0.04105  -0.1165   0.7802   1.0000
   3.750   0.6456   0.05364   0.04260  -0.1155   0.7723   1.0000
   4.000   0.6695   0.05502   0.04394  -0.1159   0.7647   1.0000
   4.250   0.6808   0.05671   0.04563  -0.1151   0.7574   1.0000
   4.500   0.7034   0.05820   0.04712  -0.1154   0.7499   1.0000
   4.750   0.7133   0.06003   0.04896  -0.1146   0.7426   1.0000
   5.000   0.7354   0.06161   0.05055  -0.1149   0.7352   1.0000
   5.250   0.7434   0.06359   0.05257  -0.1140   0.7279   1.0000
   5.500   0.7652   0.06526   0.05427  -0.1142   0.7203   1.0000
   5.750   0.7716   0.06740   0.05648  -0.1133   0.7132   1.0000
   6.000   0.7930   0.06920   0.05833  -0.1136   0.7056   1.0000
   6.250   0.7972   0.07151   0.06071  -0.1126   0.6986   1.0000
   6.500   0.8180   0.07340   0.06267  -0.1128   0.6906   1.0000
   6.750   0.8221   0.07585   0.06520  -0.1120   0.6835   1.0000
   7.000   0.8398   0.07792   0.06738  -0.1120   0.6750   1.0000
   7.250   0.8493   0.08027   0.06983  -0.1116   0.6672   1.0000
   7.500   0.8592   0.08273   0.07238  -0.1113   0.6591   1.0000
   7.750   0.8869   0.08436   0.07414  -0.1117   0.6472   1.0000
   8.000   0.8775   0.08778   0.07764  -0.1106   0.6421   1.0000
   8.250   0.8964   0.08976   0.07975  -0.1105   0.6295   1.0000
   8.250   0.8964   0.08976   0.07976  -0.1105   0.6295   1.0000
   8.350   0.8949   0.09108   0.08112  -0.1102   0.6271   1.0000
   8.450   0.9233   0.09078   0.08094  -0.1108   0.6174   1.0000
   8.750   0.9395   0.09342   0.08376  -0.1102   0.6024   1.0000
   9.000   0.9580   0.09524   0.08575  -0.1097   0.5878   1.0000
   9.250   0.9728   0.09718   0.08785  -0.1090   0.5726   1.0000
   9.500   0.9838   0.09927   0.09014  -0.1082   0.5568   1.0000
   9.750   0.9931   0.10143   0.09246  -0.1072   0.5400   1.0000
  10.000   1.0072   0.10306   0.09428  -0.1061   0.5208   1.0000
  10.250   1.0466   0.10195   0.09347  -0.1042   0.4959   1.0000
  10.500   1.0940   0.09842   0.09036  -0.1008   0.4663   1.0000
  10.750   1.3244   0.04887   0.04048  -0.0722   0.2275   1.0000
  11.000   1.3051   0.05322   0.04418  -0.0693   0.1922   1.0000
  11.250   1.2962   0.05701   0.04750  -0.0669   0.1658   1.0000
  11.500   1.3015   0.05985   0.05015  -0.0646   0.1434   1.0000
  11.750   1.3340   0.06122   0.05126  -0.0625   0.1219   1.0000
  12.000   1.4102   0.06259   0.05264  -0.0626   0.1046   1.0000
  12.250   1.4554   0.06624   0.05650  -0.0634   0.0964   1.0000
  12.500   1.4667   0.07013   0.06085  -0.0620   0.0944   1.0000
  12.750   1.4699   0.07425   0.06539  -0.0604   0.0934   1.0000
  13.000   1.4641   0.07849   0.07002  -0.0585   0.0929   1.0000
  13.250   1.4511   0.08291   0.07479  -0.0567   0.0928   1.0000
  13.500   1.4326   0.08764   0.07986  -0.0554   0.0929   1.0000
  13.750   1.4097   0.09283   0.08537  -0.0547   0.0933   1.0000
  14.000   1.3840   0.09859   0.09141  -0.0549   0.0941   1.0000
  14.250   1.3565   0.10497   0.09805  -0.0561   0.0950   1.0000
  14.500   1.3288   0.11197   0.10527  -0.0582   0.0961   1.0000
  14.750   1.3026   0.11953   0.11300  -0.0612   0.0972   1.0000
  15.000   1.2798   0.12743   0.12103  -0.0647   0.0982   1.0000
  15.250   1.2640   0.13527   0.12896  -0.0681   0.0991   1.0000
  15.500   1.1239   0.17530   0.16878  -0.0994   0.1219   1.0000
  15.750   1.1239   0.18212   0.17558  -0.1023   0.1238   1.0000
  16.000   1.1303   0.18791   0.18141  -0.1040   0.1259   1.0000
  16.500   0.8545   0.20712   0.20136  -0.1091   0.2363   1.0000
  16.250   0.8321   0.20087   0.19502  -0.1096   0.2445   1.0000
  16.350   0.8346   0.20224   0.19641  -0.1099   0.2408   1.0000
  16.450   0.8477   0.20510   0.19932  -0.1093   0.2369   1.0000
  16.750   0.8409   0.20866   0.20288  -0.1117   0.2337   1.0000
  17.000   0.8405   0.21164   0.20590  -0.1132   0.2275   1.0000
  17.250   0.8625   0.21861   0.21297  -0.1127   0.2221   1.0000
  17.500   0.8468   0.21919   0.21353  -0.1156   0.2182   1.0000
  17.750   0.8560   0.22320   0.21759  -0.1161   0.2097   1.0000
  18.000   0.8578   0.22714   0.22155  -0.1175   0.2064   1.0000
  18.250   0.8556   0.22968   0.22412  -0.1193   0.1994   1.0000
  18.500   0.8725   0.23583   0.23034  -0.1191   0.1944   1.0000
  18.750   0.8635   0.23767   0.23216  -0.1217   0.1912   1.0000
  19.000   0.8652   0.24081   0.23534  -0.1231   0.1849   1.0000
  19.250   0.8813   0.24739   0.24197  -0.1229   0.1797   1.0000
  19.500   0.8709   0.24839   0.24298  -0.1258   0.1753   1.0000
  19.750   0.8793   0.25254   0.24719  -0.1263   0.1681   1.0000
  20.000   0.8847   0.25748   0.25216  -0.1273   0.1653   1.0000
   0.000   0.2639   0.04301   0.03283  -0.1075   0.9007   0.2462
  -0.250   0.2228   0.04349   0.03354  -0.1048   0.9098   0.2184
  -0.500   0.1850   0.04408   0.03451  -0.1025   0.9194   0.1973
  -0.750   0.1508   0.04516   0.03594  -0.1005   0.9298   0.1883
  -1.000   0.1017   0.04665   0.03799  -0.0959   0.9387   0.1797
  -1.250   0.0483   0.04936   0.04142  -0.0899   0.9481   0.1875
  -1.750  -0.2101   0.06179   0.05645  -0.0322   0.9709   0.4379
  -2.000  -0.2328   0.06429   0.05894  -0.0329   0.9807   0.3772
  -2.250  -0.2603   0.06762   0.06224  -0.0320   0.9913   0.3425
  -2.200  -0.2573   0.06666   0.06132  -0.0314   0.9894   0.3448
  -2.500  -0.3015   0.07018   0.06492  -0.0253   1.0000   0.3005
  -2.250  -0.2680   0.06716   0.06185  -0.0293   0.9918   0.3323
  -2.350  -0.2750   0.06900   0.06363  -0.0306   0.9961   0.3278
  -2.450  -0.2913   0.07031   0.06496  -0.0284   1.0000   0.3127
  -2.750  -0.3181   0.07266   0.06744  -0.0228   1.0000   0.2767
  -3.000  -0.3310   0.07504   0.06983  -0.0216   1.0000   0.2585
  -2.750  -0.3181   0.07266   0.06744  -0.0228   1.0000   0.2768
  -2.850  -0.3209   0.07354   0.06831  -0.0236   1.0000   0.2709
  -2.950  -0.3192   0.07485   0.06955  -0.0261   1.0000   0.2684
  -3.250  -0.3434   0.07759   0.07239  -0.0201   1.0000   0.2433
  -3.500  -0.3515   0.08054   0.07533  -0.0203   1.0000   0.2350
  -3.750  -0.3601   0.08301   0.07779  -0.0203   1.0000   0.2237
  -4.000  -0.3738   0.08545   0.08028  -0.0153   1.0000   0.2124
  -4.250  -0.3745   0.08869   0.08345  -0.0198   1.0000   0.2075
  -4.500  -0.3854   0.09060   0.08538  -0.0127   1.0000   0.1976
  -4.750  -0.3870   0.09378   0.08851  -0.0168   1.0000   0.1925
  -5.000  -0.3893   0.09557   0.09028  -0.0115   1.0000   0.1864
  -5.250  -0.3903   0.09787   0.09254  -0.0125   1.0000   0.1794
  -5.500  -0.3929   0.10237   0.09696  -0.0181   1.0000   0.1757
  -5.750  -0.3831   0.10201   0.09654  -0.0118   1.0000   0.1706
  -6.000  -0.3794   0.10385   0.09831  -0.0127   1.0000   0.1657
  -6.250  -0.3932   0.11027   0.10473  -0.0198   1.0000   0.1605
  -6.500  -0.3764   0.10945   0.10380  -0.0161   1.0000   0.1593
  -6.750  -0.3585   0.10936   0.10357  -0.0164   1.0000   0.1568
  -7.250  -0.3350   0.11128   0.10529  -0.0211   1.0000   0.1508
  -7.500  -0.3698   0.12014   0.11423  -0.0227   1.0000   0.1450
  -7.750  -0.3459   0.11915   0.11309  -0.0248   1.0000   0.1446
  -8.000  -0.3243   0.11825   0.11204  -0.0269   1.0000   0.1438
  -8.250  -0.3074   0.11791   0.11157  -0.0285   1.0000   0.1418
  -8.500  -0.2991   0.11887   0.11243  -0.0299   1.0000   0.1386
  -8.750  -0.2965   0.12075   0.11424  -0.0314   1.0000   0.1351
  -9.000  -0.3086   0.12555   0.11904  -0.0334   1.0000   0.1311
  -8.750  -0.2965   0.12075   0.11424  -0.0314   1.0000   0.1351
  -8.850  -0.2974   0.12183   0.11530  -0.0321   1.0000   0.1337
  -8.950  -0.3027   0.12382   0.11729  -0.0329   1.0000   0.1319
  -9.250  -0.3122   0.12972   0.12313  -0.0346   1.0000   0.1295
  -9.500  -0.2971   0.12888   0.12216  -0.0354   1.0000   0.1287
  -9.750  -0.2865   0.12878   0.12195  -0.0359   1.0000   0.1262
 -10.000  -0.2836   0.13028   0.12338  -0.0366   1.0000   0.1226
 -10.250  -0.2864   0.13289   0.12593  -0.0376   1.0000   0.1186
 -10.500  -0.3099   0.14178   0.13486  -0.0396   1.0000   0.1147
 -10.750  -0.2972   0.14067   0.13363  -0.0395   1.0000   0.1141
 -11.000  -0.2886   0.14026   0.13311  -0.0391   1.0000   0.1125
 -11.250  -0.2866   0.14154   0.13431  -0.0391   1.0000   0.1096
 -11.500  -0.2885   0.14372   0.13645  -0.0393   1.0000   0.1067
 -11.750  -0.2930   0.14655   0.13923  -0.0396   1.0000   0.1039
 -12.000  -0.3060   0.15214   0.14483  -0.0407   1.0000   0.1011
 -12.250  -0.3169   0.15826   0.15090  -0.0412   1.0000   0.0998
 -12.500  -0.3095   0.15732   0.14987  -0.0403   1.0000   0.0993
 -12.750  -0.3058   0.15729   0.14976  -0.0393   1.0000   0.0978
 -13.000  -0.3071   0.15887   0.15129  -0.0387   1.0000   0.0955
 -13.250  -0.3108   0.16118   0.15356  -0.0383   1.0000   0.0931
 -13.500  -0.3159   0.16384   0.15618  -0.0380   1.0000   0.0907
 -13.750  -0.3234   0.16744   0.15979  -0.0381   1.0000   0.0881
 -14.000  -0.3480   0.17923   0.17160  -0.0395   1.0000   0.0856
 -14.250  -0.3410   0.17724   0.16952  -0.0380   1.0000   0.0852
 -14.500  -0.3391   0.17680   0.16902  -0.0367   1.0000   0.0845
 -14.750  -0.3405   0.17748   0.16965  -0.0355   1.0000   0.0829
 -15.000  -0.3448   0.17947   0.17161  -0.0345   1.0000   0.0804
 -15.250  -0.3504   0.18198   0.17409  -0.0338   1.0000   0.0783
 -15.500  -0.3567   0.18478   0.17687  -0.0332   1.0000   0.0764
 -15.750  -0.3643   0.18813   0.18020  -0.0327   1.0000   0.0746
 -16.000  -0.3754   0.19360   0.18567  -0.0327   1.0000   0.0729
 -16.250  -0.3918   0.20332   0.19540  -0.0329   1.0000   0.0718
 -16.500  -0.3909   0.20217   0.19419  -0.0313   1.0000   0.0716
 -16.750  -0.3920   0.20161   0.19358  -0.0295   1.0000   0.0711
 -17.000  -0.3954   0.20212   0.19406  -0.0279   1.0000   0.0702
 -17.250  -0.4008   0.20380   0.19572  -0.0265   1.0000   0.0687
 -17.500  -0.4073   0.20615   0.19805  -0.0252   1.0000   0.0671
 -17.750  -0.4143   0.20872   0.20060  -0.0240   1.0000   0.0655
 -18.000  -0.4216   0.21146   0.20332  -0.0229   1.0000   0.0640
 -18.250  -0.4294   0.21446   0.20631  -0.0218   1.0000   0.0624
 -18.500  -0.4382   0.21832   0.21016  -0.0210   1.0000   0.0608
 -18.750  -0.4527   0.22740   0.21929  -0.0211   1.0000   0.0595
 -19.000  -0.4612   0.23220   0.22404  -0.0199   1.0000   0.0590
 -19.250  -0.4634   0.23070   0.22251  -0.0178   1.0000   0.0587
 -19.500  -0.4675   0.23016   0.22194  -0.0156   1.0000   0.0582
 -19.750  -0.4736   0.23121   0.22297  -0.0137   1.0000   0.0572
 -20.000  -0.4808   0.23325   0.22500  -0.0120   1.0000   0.0561
