  
       XFOIL         Version 6.99
  
 Calculated polar for: S4022                                           
  
 1 1 Reynolds number fixed          Mach number fixed         
  
 xtrf =   1.000 (top)        1.000 (bottom)  
 Mach =   0.000     Re =     0.050 e 6     Ncrit =   9.000
  
   alpha    CL        CD       CDp       CM     Top_Xtr  Bot_Xtr
  ------ -------- --------- --------- -------- -------- --------
   0.000   0.0305   0.03010   0.02213  -0.0603   1.0000   1.0000
   0.250   0.0617   0.03103   0.02270  -0.0635   1.0000   1.0000
   0.500   0.0906   0.03201   0.02336  -0.0661   1.0000   1.0000
   0.750   0.1173   0.03303   0.02410  -0.0682   1.0000   1.0000
   1.000   0.1694   0.03492   0.02564  -0.0749   0.9869   1.0000
   1.250   0.2203   0.03666   0.02708  -0.0810   0.9725   1.0000
   1.500   0.2608   0.03798   0.02818  -0.0851   0.9595   1.0000
   1.750   0.3004   0.03928   0.02930  -0.0890   0.9466   1.0000
   2.000   0.3397   0.04057   0.03043  -0.0926   0.9341   1.0000
   2.250   0.3778   0.04182   0.03155  -0.0959   0.9215   1.0000
   2.500   0.4096   0.04291   0.03256  -0.0981   0.9086   1.0000
   2.750   0.4400   0.04403   0.03361  -0.1001   0.8958   1.0000
   3.000   0.4708   0.04518   0.03471  -0.1020   0.8827   1.0000
   3.250   0.5012   0.04634   0.03583  -0.1038   0.8696   1.0000
   3.500   0.5318   0.04749   0.03698  -0.1055   0.8564   1.0000
   3.750   0.5620   0.04866   0.03815  -0.1071   0.8432   1.0000
   4.000   0.5922   0.04982   0.03932  -0.1086   0.8298   1.0000
   4.250   0.6223   0.05094   0.04047  -0.1100   0.8161   1.0000
   4.500   0.6521   0.05206   0.04166  -0.1113   0.8023   1.0000
   4.750   0.6815   0.05314   0.04280  -0.1124   0.7882   1.0000
   5.000   0.7101   0.05421   0.04395  -0.1133   0.7738   1.0000
   5.250   0.7382   0.05526   0.04508  -0.1141   0.7590   1.0000
   5.500   0.7655   0.05629   0.04625  -0.1146   0.7439   1.0000
   5.750   0.7928   0.05728   0.04736  -0.1151   0.7286   1.0000
   6.000   0.8204   0.05821   0.04841  -0.1154   0.7129   1.0000
   6.250   0.8498   0.05896   0.04931  -0.1158   0.6969   1.0000
   6.500   0.8820   0.05946   0.05002  -0.1161   0.6808   1.0000
   6.750   0.9200   0.05943   0.05019  -0.1165   0.6645   1.0000
   7.000   0.9652   0.05862   0.04966  -0.1170   0.6483   1.0000
   7.250   0.9759   0.06007   0.05126  -0.1153   0.6281   1.0000
   7.500   1.0147   0.05918   0.05064  -0.1147   0.6094   1.0000
   7.750   1.0840   0.05488   0.04678  -0.1145   0.5923   1.0000
   8.000   1.1902   0.04618   0.03868  -0.1153   0.5713   1.0000
   8.250   1.3102   0.03733   0.03034  -0.1190   0.5273   1.0000
   8.500   1.3462   0.03543   0.02846  -0.1167   0.4808   1.0000
   8.750   1.3691   0.03477   0.02757  -0.1133   0.4286   1.0000
   9.000   1.3728   0.03563   0.02825  -0.1085   0.3801   1.0000
   9.250   1.3757   0.03694   0.02922  -0.1038   0.3328   1.0000
   9.500   1.3790   0.03874   0.03069  -0.0998   0.2907   1.0000
   9.750   1.3871   0.04086   0.03247  -0.0967   0.2529   1.0000
  10.000   1.3980   0.04331   0.03476  -0.0942   0.2208   1.0000
  10.250   1.4096   0.04587   0.03719  -0.0920   0.1929   1.0000
  10.500   1.4229   0.04870   0.03989  -0.0901   0.1676   1.0000
  10.750   1.4295   0.05134   0.04242  -0.0876   0.1460   1.0000
  11.000   1.4333   0.05435   0.04549  -0.0849   0.1280   1.0000
  11.250   1.4364   0.05758   0.04886  -0.0823   0.1138   1.0000
  11.500   1.4446   0.06124   0.05262  -0.0804   0.1018   1.0000
  11.750   1.4427   0.06493   0.05673  -0.0774   0.0957   1.0000
  12.000   1.4521   0.06951   0.06145  -0.0761   0.0895   1.0000
  12.250   1.4354   0.07335   0.06576  -0.0726   0.0879   1.0000
  12.500   1.4177   0.07752   0.07033  -0.0697   0.0866   1.0000
  12.750   1.3983   0.08205   0.07522  -0.0676   0.0857   1.0000
  13.000   1.3764   0.08704   0.08054  -0.0662   0.0854   1.0000
  13.250   1.3513   0.09261   0.08643  -0.0657   0.0858   1.0000
  13.500   1.3245   0.09883   0.09292  -0.0663   0.0866   1.0000
  13.750   1.2978   0.10565   0.09998  -0.0679   0.0877   1.0000
  14.000   1.2725   0.11298   0.10749  -0.0705   0.0889   1.0000
  14.250   1.2494   0.12077   0.11541  -0.0739   0.0899   1.0000
  14.500   1.2293   0.12891   0.12365  -0.0779   0.0907   1.0000
  14.500   1.2249   0.12948   0.12427  -0.0786   0.0915   1.0000
  15.750   0.8233   0.20006   0.19515  -0.1193   0.2553   1.0000
  15.500   0.8092   0.19468   0.18968  -0.1190   0.2656   1.0000
  15.600   0.8147   0.19629   0.19134  -0.1190   0.2592   1.0000
  15.700   0.8289   0.20032   0.19542  -0.1187   0.2559   1.0000
  16.000   0.8350   0.20503   0.20018  -0.1197   0.2417   1.0000
  15.750   0.8233   0.20007   0.19515  -0.1193   0.2553   1.0000
  15.850   0.8151   0.20011   0.19519  -0.1205   0.2527   1.0000
  15.950   0.8147   0.20113   0.19623  -0.1210   0.2480   1.0000
  16.250   0.8188   0.20554   0.20068  -0.1224   0.2348   1.0000
  16.000   0.8350   0.20503   0.20018  -0.1197   0.2417   1.0000
  16.100   0.8256   0.20480   0.19995  -0.1210   0.2407   1.0000
  16.200   0.8191   0.20504   0.20018  -0.1221   0.2377   1.0000
  16.500   0.8284   0.21044   0.20564  -0.1230   0.2261   1.0000
  16.750   0.8431   0.21610   0.21135  -0.1231   0.2133   1.0000
  17.000   0.8290   0.21694   0.21219  -0.1260   0.2078   1.0000
  17.250   0.8472   0.22355   0.21885  -0.1258   0.1991   1.0000
  17.500   0.8356   0.22463   0.21993  -0.1286   0.1920   1.0000
  17.750   0.8507   0.23073   0.22607  -0.1287   0.1848   1.0000
  18.000   0.8423   0.23243   0.22778  -0.1314   0.1798   1.0000
  18.250   0.8562   0.23797   0.23340  -0.1315   0.1725   1.0000
  18.500   0.8524   0.24109   0.23652  -0.1338   0.1694   1.0000
  18.750   0.8536   0.24431   0.23976  -0.1355   0.1622   1.0000
  19.000   0.8668   0.25058   0.24607  -0.1357   0.1572   1.0000
  19.250   0.8593   0.25236   0.24784  -0.1386   0.1522   1.0000
  19.500   0.8658   0.25653   0.25206  -0.1395   0.1469   1.0000
  19.750   0.8797   0.26365   0.25920  -0.1397   0.1437   1.0000
  20.000   0.8704   0.26493   0.26048  -0.1429   0.1405   1.0000
   0.000  -0.0591   0.01628   0.00996  -0.0403   1.0000   1.0000
  -0.250  -0.0649   0.01747   0.01133  -0.0416   1.0000   0.9018
  -0.500  -0.0523   0.01759   0.01136  -0.0497   1.0000   0.8370
  -0.750  -0.0395   0.01737   0.01103  -0.0586   1.0000   0.7752
  -1.000  -0.0281   0.01682   0.01031  -0.0675   1.0000   0.7006
  -1.250  -0.0409   0.01817   0.00905  -0.0740   1.0000   0.2017
  -1.500  -0.0333   0.03169   0.02138  -0.0805   1.0000   0.1750
  -1.750  -0.0615   0.03242   0.02202  -0.0800   1.0000   0.1465
  -2.000  -0.0849   0.03321   0.02278  -0.0807   1.0000   0.1355
  -2.250  -0.1092   0.03397   0.02378  -0.0813   1.0000   0.1282
  -2.500  -0.1341   0.03512   0.02499  -0.0813   1.0000   0.1205
  -2.750  -0.1632   0.03644   0.02676  -0.0807   1.0000   0.1172
  -3.000  -0.1944   0.03836   0.02915  -0.0795   1.0000   0.1176
  -3.250  -0.2268   0.04084   0.03209  -0.0777   1.0000   0.1199
  -3.500  -0.2717   0.04475   0.03701  -0.0728   1.0000   0.1292
  -3.750  -0.3101   0.04905   0.04188  -0.0683   1.0000   0.1391
  -4.250  -0.4431   0.08496   0.07994   0.0122   1.0000   0.4135
  -4.500  -0.4498   0.08728   0.08225   0.0083   1.0000   0.3899
  -4.750  -0.4426   0.08916   0.08404   0.0059   1.0000   0.3703
  -5.000  -0.4348   0.09082   0.08563   0.0035   1.0000   0.3512
  -5.250  -0.4303   0.09277   0.08751   0.0009   1.0000   0.3355
  -5.500  -0.4240   0.09475   0.08940  -0.0015   1.0000   0.3226
  -5.750  -0.4224   0.09707   0.09165  -0.0042   1.0000   0.3109
  -6.000  -0.4291   0.10013   0.09467  -0.0068   1.0000   0.2982
  -6.250  -0.3963   0.09962   0.09400  -0.0104   1.0000   0.2901
  -6.500  -0.3931   0.10193   0.09623  -0.0129   1.0000   0.2812
  -6.750  -0.4071   0.10578   0.10006  -0.0150   1.0000   0.2689
  -7.000  -0.3705   0.10472   0.09880  -0.0181   1.0000   0.2631
  -6.750  -0.4071   0.10577   0.10005  -0.0150   1.0000   0.2689
  -6.850  -0.3891   0.10509   0.09928  -0.0164   1.0000   0.2678
  -6.950  -0.3743   0.10461   0.09873  -0.0176   1.0000   0.2650
  -7.250  -0.3831   0.10855   0.10261  -0.0202   1.0000   0.2536
  -7.500  -0.3580   0.10833   0.10223  -0.0225   1.0000   0.2462
  -7.750  -0.3669   0.11197   0.10584  -0.0245   1.0000   0.2384
  -8.000  -0.3487   0.11231   0.10604  -0.0263   1.0000   0.2304
  -8.250  -0.3568   0.11602   0.10971  -0.0281   1.0000   0.2236
  -8.500  -0.3402   0.11640   0.10995  -0.0294   1.0000   0.2165
  -8.750  -0.3550   0.12098   0.11454  -0.0313   1.0000   0.2093
  -9.000  -0.3348   0.12087   0.11427  -0.0319   1.0000   0.2035
  -9.250  -0.3552   0.12625   0.11966  -0.0340   1.0000   0.1949
  -9.500  -0.3337   0.12574   0.11900  -0.0339   1.0000   0.1909
  -9.750  -0.3573   0.13178   0.12505  -0.0362   1.0000   0.1804
 -10.000  -0.3366   0.13119   0.12431  -0.0357   1.0000   0.1780
 -10.250  -0.3348   0.13305   0.12610  -0.0362   1.0000   0.1701
 -10.500  -0.3470   0.13784   0.13086  -0.0375   1.0000   0.1650
 -10.750  -0.3347   0.13810   0.13101  -0.0368   1.0000   0.1608
 -11.000  -0.3401   0.14102   0.13389  -0.0374   1.0000   0.1544
 -11.250  -0.3551   0.14667   0.13952  -0.0386   1.0000   0.1507
 -11.500  -0.3409   0.14635   0.13908  -0.0373   1.0000   0.1474
 -11.750  -0.3424   0.14862   0.14130  -0.0373   1.0000   0.1422
 -12.000  -0.3733   0.15767   0.15039  -0.0396   1.0000   0.1366
 -12.250  -0.3584   0.15669   0.14930  -0.0380   1.0000   0.1356
 -12.500  -0.3512   0.15711   0.14963  -0.0368   1.0000   0.1323
 -12.750  -0.3543   0.15960   0.15209  -0.0366   1.0000   0.1277
 -13.000  -0.3687   0.16468   0.15720  -0.0375   1.0000   0.1233
 -13.250  -0.3765   0.16933   0.16180  -0.0374   1.0000   0.1215
 -13.500  -0.3684   0.16891   0.16129  -0.0358   1.0000   0.1196
 -13.750  -0.3694   0.17075   0.16308  -0.0348   1.0000   0.1159
 -14.000  -0.3753   0.17368   0.16598  -0.0346   1.0000   0.1120
 -14.250  -0.4040   0.18444   0.17678  -0.0365   1.0000   0.1075
 -14.500  -0.3954   0.18320   0.17546  -0.0347   1.0000   0.1070
 -14.750  -0.3910   0.18291   0.17510  -0.0329   1.0000   0.1052
 -15.000  -0.3934   0.18473   0.17687  -0.0318   1.0000   0.1014
 -15.250  -0.4000   0.18764   0.17976  -0.0313   1.0000   0.0976
 -15.500  -0.4136   0.19317   0.18530  -0.0318   1.0000   0.0943
 -15.750  -0.4249   0.19929   0.19138  -0.0316   1.0000   0.0929
 -16.000  -0.4210   0.19830   0.19033  -0.0296   1.0000   0.0920
 -16.250  -0.4228   0.19928   0.19129  -0.0279   1.0000   0.0902
 -16.500  -0.4277   0.20150   0.19348  -0.0267   1.0000   0.0876
 -16.750  -0.4341   0.20424   0.19620  -0.0258   1.0000   0.0850
 -17.000  -0.4419   0.20751   0.19946  -0.0252   1.0000   0.0825
 -17.250  -0.4542   0.21313   0.20509  -0.0253   1.0000   0.0802
 -17.500  -0.4696   0.22177   0.21371  -0.0254   1.0000   0.0790
 -17.750  -0.4680   0.22045   0.21233  -0.0232   1.0000   0.0786
 -18.000  -0.4693   0.22017   0.21201  -0.0211   1.0000   0.0777
 -18.250  -0.4737   0.22150   0.21330  -0.0193   1.0000   0.0760
 -18.500  -0.4799   0.22383   0.21561  -0.0179   1.0000   0.0738
 -18.750  -0.4869   0.22648   0.21825  -0.0166   1.0000   0.0718
 -19.000  -0.4944   0.22936   0.22111  -0.0155   1.0000   0.0699
 -19.250  -0.5026   0.23268   0.22442  -0.0146   1.0000   0.0681
 -19.500  -0.5132   0.23786   0.22964  -0.0142   1.0000   0.0665
 -19.750  -0.5305   0.24954   0.24132  -0.0146   1.0000   0.0653
 -20.000  -0.5311   0.24771   0.23944  -0.0122   1.0000   0.0651
