  
       XFOIL         Version 6.99
  
 Calculated polar for: FX 66-H-80                                      
  
 1 1 Reynolds number fixed          Mach number fixed         
  
 xtrf =   1.000 (top)        1.000 (bottom)  
 Mach =   0.000     Re =     0.050 e 6     Ncrit =   9.000
  
   alpha    CL        CD       CDp       CM     Top_Xtr  Bot_Xtr
  ------ -------- --------- --------- -------- -------- --------
   0.000   0.2385   0.02057   0.01038  -0.0338   0.7490   1.0000
   0.250   0.2624   0.02115   0.01082  -0.0336   0.7372   1.0000
   0.500   0.2866   0.02178   0.01133  -0.0335   0.7263   1.0000
   0.750   0.3098   0.02243   0.01186  -0.0331   0.7164   1.0000
   1.000   0.3320   0.02306   0.01236  -0.0321   0.7074   1.0000
   1.250   0.3566   0.02385   0.01311  -0.0326   0.6973   1.0000
   1.500   0.3799   0.02465   0.01386  -0.0324   0.6883   1.0000
   1.750   0.4022   0.02538   0.01455  -0.0316   0.6801   1.0000
   2.000   0.4262   0.02638   0.01558  -0.0323   0.6710   1.0000
   2.250   0.4485   0.02726   0.01644  -0.0318   0.6634   1.0000
   2.500   0.4713   0.02833   0.01755  -0.0322   0.6550   1.0000
   2.750   0.4935   0.02948   0.01873  -0.0323   0.6474   1.0000
   3.000   0.5152   0.03056   0.01991  -0.0321   0.6399   1.0000
   3.250   0.5360   0.03202   0.02145  -0.0328   0.6325   1.0000
   3.500   0.5570   0.03320   0.02269  -0.0325   0.6257   1.0000
   3.750   0.5755   0.03495   0.02455  -0.0333   0.6184   1.0000
   4.000   0.5953   0.03633   0.02602  -0.0331   0.6120   1.0000
   4.250   0.6110   0.03835   0.02816  -0.0339   0.6053   1.0000
   4.500   0.6280   0.04009   0.03008  -0.0340   0.5990   1.0000
   4.750   0.6423   0.04218   0.03229  -0.0344   0.5933   1.0000
   5.000   0.6519   0.04465   0.03487  -0.0351   0.5874   1.0000
   5.250   0.6722   0.04619   0.03655  -0.0344   0.5817   1.0000
   5.500   0.6696   0.04957   0.04001  -0.0358   0.5773   1.0000
   5.750   0.6768   0.05209   0.04263  -0.0359   0.5723   1.0000
   6.000   0.6887   0.05437   0.04504  -0.0356   0.5664   1.0000
   6.250   0.6825   0.05766   0.04837  -0.0360   0.5647   1.0000
   6.500   0.6762   0.06068   0.05141  -0.0356   0.5638   1.0000
   6.750   0.6728   0.06373   0.05451  -0.0353   0.5649   1.0000
   7.000   0.6744   0.06686   0.05780  -0.0356   0.5665   1.0000
   7.000   0.6731   0.06703   0.05796  -0.0359   0.5697   1.0000
   7.100   0.6762   0.06823   0.05922  -0.0360   0.5692   1.0000
   7.200   0.6821   0.06952   0.06059  -0.0362   0.5684   1.0000
   7.500   0.7057   0.07146   0.06280  -0.0344   0.5404   1.0000
   7.500   0.7057   0.07146   0.06280  -0.0344   0.5404   1.0000
   8.000   0.7611   0.07193   0.06399  -0.0282   0.4721   1.0000
   8.250   0.9030   0.03614   0.02615   0.0142   0.1078   1.0000
   8.500   0.9175   0.03825   0.02828   0.0164   0.0967   1.0000
   8.750   0.9446   0.04049   0.03070   0.0190   0.0901   1.0000
   9.000   0.9726   0.04351   0.03363   0.0207   0.0832   1.0000
   9.250   0.9897   0.04666   0.03720   0.0218   0.0796   1.0000
   9.500   1.0040   0.05017   0.04116   0.0229   0.0779   1.0000
   9.750   1.0138   0.05424   0.04569   0.0237   0.0779   1.0000
  10.000   1.0176   0.05851   0.05037   0.0244   0.0786   1.0000
  10.250   1.0162   0.06298   0.05519   0.0247   0.0795   1.0000
  10.500   1.0116   0.06753   0.06002   0.0247   0.0805   1.0000
  10.750   1.0052   0.07235   0.06503   0.0244   0.0815   1.0000
  11.000   1.0011   0.07730   0.07014   0.0242   0.0826   1.0000
  11.250   0.9668   0.08110   0.07413   0.0213   0.0833   1.0000
  11.500   0.9218   0.08817   0.08134   0.0140   0.0843   1.0000
  11.750   0.8666   0.10046   0.09365   0.0026   0.0877   1.0000
  12.000   0.8426   0.11064   0.10377  -0.0037   0.0922   1.0000
  12.250   0.8390   0.11705   0.11016  -0.0059   0.0941   1.0000
  12.250   0.8323   0.11896   0.11207  -0.0078   0.0965   1.0000
  12.350   0.8318   0.12116   0.11426  -0.0084   0.0960   1.0000
  12.450   0.8381   0.12201   0.11513  -0.0074   0.0953   1.0000
  12.750   0.8167   0.13583   0.12873  -0.0153   0.1076   1.0000
  13.000   0.6440   0.13823   0.13146  -0.0150   0.1293   1.0000
  13.250   0.7636   0.16538   0.15803  -0.0375   0.2267   1.0000
  13.500   0.7663   0.16985   0.16249  -0.0391   0.2267   1.0000
  13.750   0.7761   0.17552   0.16816  -0.0401   0.2257   1.0000
  14.000   0.7637   0.17670   0.16927  -0.0430   0.2223   1.0000
  14.250   0.7698   0.18043   0.17300  -0.0441   0.2161   1.0000
  14.500   0.7821   0.18581   0.17840  -0.0446   0.2116   1.0000
  14.750   0.7798   0.18774   0.18029  -0.0467   0.2041   1.0000
  15.000   0.8019   0.19527   0.18789  -0.0462   0.1991   1.0000
  15.250   0.7913   0.19533   0.18787  -0.0495   0.1946   1.0000
  15.500   0.8013   0.19945   0.19201  -0.0504   0.1886   1.0000
  15.750   0.8145   0.20542   0.19800  -0.0509   0.1855   1.0000
  16.000   0.8103   0.20625   0.19878  -0.0539   0.1797   1.0000
  16.250   0.8253   0.21160   0.20424  -0.0540   0.1741   1.0000
  16.500   0.8275   0.21462   0.20721  -0.0563   0.1710   1.0000
  16.750   0.8314   0.21703   0.20961  -0.0584   0.1647   1.0000
  17.000   0.8495   0.22436   0.21698  -0.0580   0.1594   1.0000
  17.250   0.8451   0.22417   0.21674  -0.0616   0.1551   1.0000
  17.500   0.8698   0.23372   0.22636  -0.0599   0.1467   1.0000
  17.750   0.8618   0.23179   0.22435  -0.0643   0.1445   1.0000
  18.000   0.8676   0.23439   0.22696  -0.0663   0.1381   1.0000
  18.250   0.8877   0.24324   0.23586  -0.0654   0.1335   1.0000
  18.500   0.8826   0.24173   0.23428  -0.0697   0.1306   1.0000
  18.750   0.8894   0.24463   0.23719  -0.0717   0.1255   1.0000
  19.000   0.9124   0.25563   0.24827  -0.0700   0.1207   1.0000
  19.250   0.9079   0.25336   0.24593  -0.0744   0.1195   1.0000
  19.500   0.9113   0.25481   0.24736  -0.0774   0.1151   1.0000
  19.750   0.9206   0.25850   0.25107  -0.0788   0.1109   1.0000
  20.000   0.9385   0.26824   0.26092  -0.0780   0.1077   1.0000
   0.000   0.2385   0.02057   0.01038  -0.0338   0.7490   1.0000
  -0.250   0.2158   0.02003   0.01004  -0.0345   0.7606   1.0000
  -0.500   0.1928   0.01952   0.00974  -0.0352   0.7730   1.0000
  -0.750   0.1699   0.01903   0.00952  -0.0360   0.7866   1.0000
  -1.000   0.1470   0.01855   0.00931  -0.0367   0.8014   1.0000
  -1.250   0.1243   0.01809   0.00917  -0.0374   0.8178   1.0000
  -1.500   0.1029   0.01764   0.00911  -0.0387   0.8355   1.0000
  -1.750   0.0807   0.01719   0.00913  -0.0398   0.8568   1.0000
  -2.000   0.0568   0.01676   0.00942  -0.0410   0.8820   1.0000
  -2.250  -0.0749   0.02392   0.01374  -0.0269   0.8971   0.1344
  -2.500  -0.1269   0.02577   0.01601  -0.0241   0.9210   0.1244
  -2.750  -0.1844   0.02820   0.01899  -0.0195   0.9464   0.1150
  -3.000  -0.2488   0.03191   0.02322  -0.0132   0.9716   0.1198
  -3.250  -0.3136   0.03558   0.02808  -0.0071   1.0000   0.1436
  -3.500  -0.3094   0.03657   0.02909  -0.0093   1.0000   0.1501
  -3.750  -0.3383   0.04032   0.03334  -0.0083   1.0000   0.1899
  -4.000  -0.3802   0.04972   0.04519   0.0489   1.0000   0.6726
  -4.250  -0.3351   0.05160   0.04672   0.0502   1.0000   0.7504
  -4.500  -0.2821   0.05172   0.04651   0.0465   1.0000   0.8231
  -4.750  -0.2196   0.05031   0.04482   0.0380   1.0000   0.9181
  -4.750  -0.2196   0.05031   0.04482   0.0380   1.0000   0.9181
  -4.850  -0.1906   0.04893   0.04333   0.0321   1.0000   0.9512
  -5.750  -0.5134   0.07322   0.06816   0.0237   1.0000   0.3424
  -6.000  -0.5179   0.07625   0.07111   0.0223   1.0000   0.3072
  -6.250  -0.5240   0.07970   0.07448   0.0215   1.0000   0.2805
  -6.500  -0.5369   0.08393   0.07863   0.0195   1.0000   0.2589
  -6.750  -0.5356   0.08697   0.08160   0.0216   1.0000   0.2419
  -7.000  -0.5391   0.09049   0.08504   0.0225   1.0000   0.2274
  -7.250  -0.5441   0.09421   0.08869   0.0229   1.0000   0.2151
  -7.500  -0.5536   0.09846   0.09288   0.0225   1.0000   0.2029
  -7.750  -0.5677   0.10330   0.09768   0.0214   1.0000   0.1900
  -8.000  -0.5473   0.10453   0.09874   0.0264   1.0000   0.1860
  -8.250  -0.5651   0.10989   0.10408   0.0250   1.0000   0.1756
  -8.500  -0.5520   0.11142   0.10549   0.0290   1.0000   0.1705
  -8.750  -0.5713   0.11722   0.11128   0.0274   1.0000   0.1617
  -9.000  -0.5596   0.11864   0.11258   0.0314   1.0000   0.1576
  -9.250  -0.5811   0.12507   0.11908   0.0294   1.0000   0.1480
  -9.500  -0.5690   0.12619   0.12002   0.0336   1.0000   0.1452
  -9.750  -0.5766   0.12990   0.12377   0.0342   1.0000   0.1369
 -10.000  -0.5837   0.13454   0.12835   0.0351   1.0000   0.1331
 -10.250  -0.5796   0.13652   0.13025   0.0381   1.0000   0.1289
 -10.500  -0.6064   0.14465   0.13842   0.0354   1.0000   0.1203
 -10.750  -0.5966   0.14538   0.13905   0.0395   1.0000   0.1191
 -11.000  -0.5943   0.14739   0.14100   0.0423   1.0000   0.1154
 -11.250  -0.6014   0.15108   0.14468   0.0434   1.0000   0.1105
 -11.500  -0.6244   0.15951   0.15312   0.0418   1.0000   0.1063
 -11.750  -0.6183   0.16024   0.15378   0.0454   1.0000   0.1054
 -12.000  -0.6174   0.16198   0.15546   0.0482   1.0000   0.1029
 -12.250  -0.6224   0.16515   0.15860   0.0500   1.0000   0.0991
 -12.500  -0.6337   0.16986   0.16332   0.0505   1.0000   0.0950
 -12.750  -0.6526   0.17812   0.17157   0.0499   1.0000   0.0925
 -13.000  -0.6495   0.17863   0.17202   0.0532   1.0000   0.0918
 -13.250  -0.6494   0.17989   0.17323   0.0562   1.0000   0.0896
 -13.500  -0.6550   0.18278   0.17610   0.0582   1.0000   0.0865
 -13.750  -0.6629   0.18630   0.17961   0.0597   1.0000   0.0837
 -14.000  -0.6759   0.19183   0.18514   0.0600   1.0000   0.0805
 -14.250  -0.6945   0.20100   0.19437   0.0598   1.0000   0.0788
 -14.500  -0.6932   0.20088   0.19419   0.0630   1.0000   0.0783
 -14.750  -0.6947   0.20140   0.19467   0.0661   1.0000   0.0771
 -15.000  -0.7002   0.20355   0.19679   0.0685   1.0000   0.0751
 -15.250  -0.7076   0.20656   0.19979   0.0705   1.0000   0.0727
 -15.500  -0.7161   0.20992   0.20314   0.0722   1.0000   0.0705
 -15.750  -0.7258   0.21393   0.20715   0.0735   1.0000   0.0682
 -16.000  -0.7548   0.23053   0.22379   0.0712   1.0000   0.0653
 -16.250  -0.7553   0.22991   0.22313   0.0743   1.0000   0.0652
 -16.500  -0.7567   0.22913   0.22230   0.0775   1.0000   0.0648
 -16.750  -0.7601   0.22897   0.22210   0.0806   1.0000   0.0641
 -17.000  -0.7662   0.23031   0.22342   0.0834   1.0000   0.0626
 -17.250  -0.7741   0.23289   0.22599   0.0856   1.0000   0.0607
 -17.500  -0.7826   0.23590   0.22898   0.0877   1.0000   0.0587
 -17.750  -0.7914   0.23915   0.23223   0.0895   1.0000   0.0568
 -18.000  -0.8008   0.24285   0.23593   0.0911   1.0000   0.0549
 -18.250  -0.8121   0.24853   0.24163   0.0920   1.0000   0.0531
 -18.500  -0.8324   0.26399   0.25716   0.0911   1.0000   0.0518
 -18.750  -0.8358   0.26297   0.25610   0.0941   1.0000   0.0516
 -19.000  -0.8403   0.26238   0.25548   0.0972   1.0000   0.0514
 -19.250  -0.8460   0.26230   0.25538   0.1002   1.0000   0.0510
 -19.500  -0.8529   0.26319   0.25625   0.1031   1.0000   0.0504
 -19.750  -0.8608   0.26500   0.25806   0.1056   1.0000   0.0495
 -20.000  -0.8692   0.26747   0.26052   0.1080   1.0000   0.0483
