  
       XFOIL         Version 6.99
  
 Calculated polar for: PMC19 Smoothed                                  
  
 1 1 Reynolds number fixed          Mach number fixed         
  
 xtrf =   1.000 (top)        1.000 (bottom)  
 Mach =   0.000     Re =     0.050 e 6     Ncrit =   9.000
  
   alpha    CL        CD       CDp       CM     Top_Xtr  Bot_Xtr
  ------ -------- --------- --------- -------- -------- --------
   0.000   0.2203   0.01907   0.00984  -0.0249   0.8397   1.0000
   0.250   0.2371   0.01948   0.01005  -0.0229   0.8093   1.0000
   0.500   0.2538   0.01987   0.01026  -0.0208   0.7834   1.0000
   0.750   0.2716   0.02026   0.01052  -0.0191   0.7586   1.0000
   1.000   0.2896   0.02067   0.01080  -0.0175   0.7365   1.0000
   1.250   0.3077   0.02109   0.01111  -0.0160   0.7162   1.0000
   1.500   0.3256   0.02151   0.01140  -0.0142   0.6983   1.0000
   1.750   0.3449   0.02203   0.01183  -0.0131   0.6803   1.0000
   2.000   0.3644   0.02259   0.01235  -0.0121   0.6634   1.0000
   2.250   0.3843   0.02318   0.01287  -0.0110   0.6477   1.0000
   2.500   0.4051   0.02382   0.01345  -0.0102   0.6329   1.0000
   2.750   0.4270   0.02451   0.01410  -0.0095   0.6190   1.0000
   3.000   0.4496   0.02523   0.01479  -0.0090   0.6058   1.0000
   3.250   0.4728   0.02594   0.01550  -0.0084   0.5939   1.0000
   3.500   0.4965   0.02676   0.01633  -0.0081   0.5818   1.0000
   3.750   0.5207   0.02782   0.01747  -0.0085   0.5693   1.0000
   4.000   0.5448   0.02899   0.01873  -0.0090   0.5579   1.0000
   4.250   0.5689   0.03009   0.01994  -0.0091   0.5476   1.0000
   4.500   0.5932   0.03104   0.02094  -0.0088   0.5382   1.0000
   4.750   0.6165   0.03279   0.02289  -0.0102   0.5275   1.0000
   5.000   0.6396   0.03434   0.02458  -0.0108   0.5183   1.0000
   5.250   0.6633   0.03562   0.02598  -0.0108   0.5098   1.0000
   5.500   0.6833   0.03822   0.02888  -0.0130   0.5006   1.0000
   5.750   0.7081   0.03912   0.02987  -0.0120   0.4938   1.0000
   6.000   0.7227   0.04294   0.03399  -0.0156   0.4847   1.0000
   6.250   0.7459   0.04436   0.03556  -0.0151   0.4786   1.0000
   6.500   0.7525   0.04937   0.04085  -0.0198   0.4708   1.0000
   6.750   0.7753   0.05100   0.04271  -0.0193   0.4654   1.0000
   7.000   0.7710   0.05743   0.04930  -0.0251   0.4610   1.0000
   7.250   0.7665   0.06314   0.05510  -0.0297   0.4588   1.0000
   7.500   0.7623   0.06849   0.06052  -0.0335   0.4606   1.0000
   7.750   0.7602   0.07307   0.06517  -0.0357   0.4625   1.0000
   8.000   0.7597   0.07741   0.06960  -0.0374   0.4634   1.0000
   8.250   0.7555   0.08171   0.07396  -0.0390   0.4633   1.0000
   8.500   0.7466   0.08582   0.07811  -0.0404   0.4615   1.0000
   8.750   0.7379   0.09052   0.08286  -0.0427   0.4686   1.0000
   9.000   0.7274   0.09563   0.08802  -0.0454   0.4830   1.0000
   9.250   0.9939   0.04091   0.03165   0.0165   0.0982   1.0000
   9.500   1.0140   0.04359   0.03428   0.0175   0.0916   1.0000
   9.750   1.0328   0.04700   0.03800   0.0183   0.0889   1.0000
  10.000   1.0462   0.05082   0.04229   0.0189   0.0879   1.0000
  10.250   1.0535   0.05510   0.04704   0.0193   0.0877   1.0000
  10.500   1.0540   0.05973   0.05211   0.0193   0.0879   1.0000
  10.750   1.0470   0.06460   0.05734   0.0188   0.0883   1.0000
  11.000   1.0336   0.06957   0.06258   0.0179   0.0888   1.0000
  11.250   1.0162   0.07486   0.06805   0.0159   0.0895   1.0000
  11.500   0.9995   0.08084   0.07416   0.0129   0.0902   1.0000
  11.750   0.8901   0.10254   0.09604  -0.0096   0.0978   1.0000
  12.000   0.8699   0.11257   0.10600  -0.0150   0.1010   1.0000
  12.250   0.8624   0.11991   0.11330  -0.0179   0.1024   1.0000
  12.250   0.8624   0.11991   0.11330  -0.0179   0.1024   1.0000
  12.350   0.8617   0.12239   0.11576  -0.0187   0.1027   1.0000
  12.750   0.6513   0.13088   0.12428  -0.0127   0.1271   1.0000
  12.750   0.6513   0.13088   0.12429  -0.0127   0.1271   1.0000
  12.850   0.6529   0.13266   0.12607  -0.0128   0.1278   1.0000
  13.250   0.7722   0.16853   0.16144  -0.0506   0.2177   1.0000
  13.500   0.7752   0.17282   0.16572  -0.0524   0.2173   1.0000
  13.750   0.7794   0.17674   0.16964  -0.0540   0.2139   1.0000
  14.000   0.7995   0.18293   0.17591  -0.0537   0.2089   1.0000
  14.250   0.8019   0.18712   0.18006  -0.0557   0.2076   1.0000
  14.500   0.7959   0.18898   0.18187  -0.0587   0.2046   1.0000
  14.750   0.8006   0.19253   0.18543  -0.0605   0.2005   1.0000
  15.000   0.8111   0.19706   0.18998  -0.0615   0.1971   1.0000
  15.250   0.8337   0.20561   0.19861  -0.0612   0.1947   1.0000
  15.500   0.8227   0.20510   0.19800  -0.0652   0.1925   1.0000
  15.750   0.8264   0.20786   0.20076  -0.0674   0.1869   1.0000
  16.000   0.8467   0.21499   0.20799  -0.0669   0.1816   1.0000
  16.250   0.8438   0.21628   0.20923  -0.0703   0.1791   1.0000
  16.500   0.8483   0.21881   0.21175  -0.0725   0.1728   1.0000
  16.750   0.8681   0.22631   0.21932  -0.0720   0.1682   1.0000
  17.000   0.8665   0.22747   0.22042  -0.0755   0.1661   1.0000
  17.250   0.8703   0.22961   0.22255  -0.0783   0.1609   1.0000
  17.500   0.8831   0.23450   0.22748  -0.0789   0.1563   1.0000
  17.750   0.8939   0.24014   0.23312  -0.0802   0.1539   1.0000
  18.000   0.8937   0.24043   0.23337  -0.0841   0.1496   1.0000
  18.250   0.9037   0.24422   0.23719  -0.0855   0.1445   1.0000
  18.500   0.9193   0.25185   0.24484  -0.0855   0.1411   1.0000
  18.750   0.9180   0.25095   0.24390  -0.0901   0.1373   1.0000
  19.000   0.9278   0.25459   0.24760  -0.0915   0.1313   1.0000
  19.250   0.9423   0.26201   0.25505  -0.0917   0.1280   1.0000
  19.500   0.9424   0.26123   0.25423  -0.0962   0.1247   1.0000
  19.750   0.9508   0.26439   0.25740  -0.0983   0.1199   1.0000
  20.000   0.9677   0.27277   0.26585  -0.0976   0.1160   1.0000
   0.000   0.2203   0.01907   0.00984  -0.0249   0.8398   1.0000
  -0.250   0.2018   0.01865   0.00964  -0.0268   0.8747   1.0000
  -0.500   0.1701   0.01831   0.00962  -0.0261   0.9185   1.0000
  -0.750   0.0952   0.01832   0.01022  -0.0168   0.9671   1.0000
  -1.000  -0.0406   0.02112   0.01056  -0.0083   0.9692   0.1884
  -1.250  -0.1129   0.02268   0.01213   0.0010   0.9993   0.1602
  -1.500  -0.1264   0.02310   0.01252   0.0002   1.0000   0.1554
  -1.750  -0.1407   0.02356   0.01297  -0.0010   1.0000   0.1534
  -2.000  -0.1577   0.02414   0.01358  -0.0025   1.0000   0.1514
  -2.250  -0.1799   0.02510   0.01454  -0.0035   1.0000   0.1462
  -2.500  -0.2072   0.02640   0.01591  -0.0041   1.0000   0.1472
  -2.750  -0.2363   0.02815   0.01773  -0.0044   1.0000   0.1527
  -3.000  -0.2675   0.02935   0.01934  -0.0050   1.0000   0.1620
  -3.250  -0.2971   0.03167   0.02176  -0.0052   1.0000   0.1679
  -3.500  -0.3326   0.03266   0.02337  -0.0057   1.0000   0.1937
  -3.750  -0.3724   0.03381   0.02519  -0.0058   1.0000   0.2380
  -4.000  -0.4209   0.03482   0.02725  -0.0037   1.0000   0.3104
  -4.250  -0.4835   0.03985   0.03411   0.0113   1.0000   0.4366
  -4.250  -0.4835   0.03985   0.03411   0.0113   1.0000   0.4366
  -4.350  -0.5005   0.04591   0.04069   0.0264   1.0000   0.4960
  -4.450  -0.4942   0.05283   0.04773   0.0437   1.0000   0.5577
  -4.750  -0.4321   0.06025   0.05483   0.0567   1.0000   0.6598
  -4.750  -0.4324   0.06074   0.05531   0.0577   1.0000   0.6701
  -4.850  -0.4049   0.06144   0.05589   0.0581   1.0000   0.7042
  -5.100  -0.3488   0.06324   0.05745   0.0591   1.0000   0.8306
  -5.200  -0.3425   0.06391   0.05808   0.0587   1.0000   0.8449
  -5.250  -0.3364   0.06367   0.05781   0.0572   1.0000   0.8419
  -5.750  -0.3337   0.06843   0.06244   0.0571   1.0000   0.8768
  -6.000  -0.3514   0.07213   0.06612   0.0587   1.0000   0.8521
  -6.250  -0.4200   0.07952   0.07359   0.0633   1.0000   0.7419
  -6.500  -0.4863   0.08360   0.07778   0.0585   1.0000   0.5897
  -6.500  -0.4838   0.08357   0.07774   0.0586   1.0000   0.5929
  -7.000  -0.4032   0.07918   0.07374   0.0362   1.0000   0.4973
  -7.250  -0.6104   0.08709   0.08139   0.0194   1.0000   0.2369
  -7.500  -0.6211   0.09092   0.08513   0.0161   1.0000   0.2105
  -7.750  -0.6192   0.09502   0.08919   0.0178   1.0000   0.1956
  -8.000  -0.6224   0.09929   0.09339   0.0182   1.0000   0.1818
  -8.250  -0.6059   0.10307   0.09706   0.0245   1.0000   0.1766
  -8.500  -0.6121   0.10740   0.10134   0.0243   1.0000   0.1663
  -8.750  -0.6297   0.11243   0.10636   0.0212   1.0000   0.1541
  -9.000  -0.6123   0.11540   0.10921   0.0277   1.0000   0.1521
  -9.250  -0.6096   0.11883   0.11257   0.0302   1.0000   0.1453
  -9.500  -0.6231   0.12414   0.11787   0.0289   1.0000   0.1394
  -9.750  -0.6128   0.12680   0.12043   0.0333   1.0000   0.1358
 -10.000  -0.6183   0.13067   0.12428   0.0340   1.0000   0.1295
 -10.250  -0.6309   0.13633   0.12995   0.0332   1.0000   0.1254
 -10.500  -0.6223   0.13860   0.13209   0.0374   1.0000   0.1230
 -10.750  -0.6234   0.14195   0.13544   0.0394   1.0000   0.1183
 -11.000  -0.6516   0.15020   0.14374   0.0352   1.0000   0.1119
 -11.250  -0.6427   0.15190   0.14535   0.0395   1.0000   0.1112
 -11.500  -0.6373   0.15389   0.14727   0.0432   1.0000   0.1091
 -11.750  -0.6390   0.15700   0.15034   0.0454   1.0000   0.1054
 -12.000  -0.6463   0.16096   0.15429   0.0462   1.0000   0.1014
 -12.250  -0.6701   0.16976   0.16312   0.0434   1.0000   0.0976
 -12.500  -0.6645   0.17096   0.16424   0.0474   1.0000   0.0969
 -12.750  -0.6620   0.17254   0.16577   0.0509   1.0000   0.0952
 -13.000  -0.6649   0.17531   0.16851   0.0532   1.0000   0.0922
 -13.250  -0.6713   0.17883   0.17201   0.0546   1.0000   0.0887
 -13.500  -0.7022   0.19094   0.18417   0.0503   1.0000   0.0834
 -13.750  -0.6986   0.19159   0.18476   0.0542   1.0000   0.0831
 -14.000  -0.6964   0.19217   0.18529   0.0579   1.0000   0.0823
 -14.250  -0.6974   0.19347   0.18655   0.0609   1.0000   0.0806
 -14.500  -0.7026   0.19614   0.18924   0.0631   1.0000   0.0780
 -14.750  -0.7097   0.19943   0.19251   0.0649   1.0000   0.0755
 -15.000  -0.7180   0.20313   0.19620   0.0663   1.0000   0.0732
 -15.250  -0.7293   0.20822   0.20130   0.0668   1.0000   0.0709
 -15.500  -0.7537   0.22125   0.21435   0.0648   1.0000   0.0689
 -15.750  -0.7538   0.22131   0.21437   0.0684   1.0000   0.0687
 -16.000  -0.7545   0.22111   0.21412   0.0717   1.0000   0.0682
 -16.250  -0.7578   0.22170   0.21468   0.0748   1.0000   0.0674
 -16.500  -0.7639   0.22362   0.21658   0.0775   1.0000   0.0659
 -16.750  -0.7715   0.22639   0.21934   0.0797   1.0000   0.0641
 -17.000  -0.7796   0.22949   0.22243   0.0818   1.0000   0.0624
 -17.250  -0.7881   0.23277   0.22570   0.0837   1.0000   0.0607
 -17.500  -0.7969   0.23626   0.22919   0.0854   1.0000   0.0591
 -17.750  -0.8062   0.24023   0.23316   0.0868   1.0000   0.0575
 -18.000  -0.8178   0.24625   0.23924   0.0874   1.0000   0.0560
 -18.250  -0.8407   0.26329   0.25630   0.0858   1.0000   0.0547
 -18.500  -0.8421   0.26146   0.25444   0.0892   1.0000   0.0545
 -18.750  -0.8449   0.25983   0.25276   0.0928   1.0000   0.0542
 -19.000  -0.8497   0.25909   0.25199   0.0963   1.0000   0.0537
 -19.250  -0.8567   0.25986   0.25276   0.0994   1.0000   0.0527
 -19.500  -0.8648   0.26200   0.25489   0.1021   1.0000   0.0513
 -19.750  -0.8734   0.26472   0.25760   0.1044   1.0000   0.0499
 -20.000  -0.8820   0.26766   0.26055   0.1066   1.0000   0.0486
