  
       XFOIL         Version 6.99
  
 Calculated polar for: N-22                                            
  
 1 1 Reynolds number fixed          Mach number fixed         
  
 xtrf =   1.000 (top)        1.000 (bottom)  
 Mach =   0.000     Re =     0.050 e 6     Ncrit =   9.000
  
   alpha    CL        CD       CDp       CM     Top_Xtr  Bot_Xtr
  ------ -------- --------- --------- -------- -------- --------
   0.000   0.4703   0.03700   0.02674  -0.0870   0.7840   1.0001
   0.250   0.5018   0.03753   0.02720  -0.0876   0.7692   1.0001
   0.500   0.5342   0.03801   0.02763  -0.0883   0.7551   1.0001
   0.750   0.5862   0.03763   0.02719  -0.0909   0.7451   1.0001
   1.000   0.6088   0.03839   0.02791  -0.0902   0.7301   1.0001
   1.250   0.6295   0.03931   0.02881  -0.0894   0.7153   1.0001
   1.500   0.6497   0.04031   0.02979  -0.0887   0.7012   1.0001
   1.750   0.6721   0.04123   0.03070  -0.0881   0.6881   1.0001
   2.000   0.7197   0.04054   0.03000  -0.0893   0.6800   1.0001
   2.250   0.7309   0.04217   0.03165  -0.0879   0.6657   1.0001
   2.250   0.7309   0.04217   0.03165  -0.0879   0.6657   1.0001
   2.350   0.7541   0.04158   0.03105  -0.0886   0.6635   1.0001
   2.450   0.7338   0.04398   0.03346  -0.0865   0.6540   1.0001
   2.750   0.7580   0.04538   0.03489  -0.0858   0.6404   1.0001
   3.000   0.7996   0.04492   0.03446  -0.0863   0.6320   1.0001
   3.250   0.7987   0.04766   0.03723  -0.0844   0.6183   1.0001
   3.500   0.7990   0.05042   0.04002  -0.0828   0.6060   1.0001
   3.750   0.8596   0.04830   0.03797  -0.0839   0.5990   1.0001
   4.000   0.8456   0.05219   0.04189  -0.0816   0.5850   1.0001
   4.250   0.8385   0.05574   0.04547  -0.0800   0.5720   1.0001
   4.500   0.9317   0.05020   0.04005  -0.0813   0.5657   1.0001
   4.750   0.9157   0.05424   0.04414  -0.0788   0.5513   1.0001
   5.000   0.8944   0.05925   0.04917  -0.0770   0.5372   1.0001
   5.250   0.8894   0.06277   0.05273  -0.0758   0.5240   1.0001
   5.750   1.0236   0.05460   0.04484  -0.0744   0.5026   1.0001
   5.500   0.9076   0.06392   0.05396  -0.0746   0.5118   1.0001
   5.600   0.9148   0.06434   0.05441  -0.0742   0.5065   1.0001
   5.700   0.9714   0.05918   0.04936  -0.0735   0.5037   1.0001
   6.000   0.9895   0.06057   0.05085  -0.0716   0.4879   1.0001
   6.250   0.9653   0.06648   0.05679  -0.0706   0.4729   1.0001
   6.500   0.9575   0.07055   0.06091  -0.0696   0.4586   1.0001
   6.750   0.9595   0.07348   0.06390  -0.0685   0.4447   1.0001
   7.000   0.9776   0.07448   0.06500  -0.0671   0.4317   1.0001
   7.250   1.1959   0.05334   0.04415  -0.0673   0.4187   1.0001
   7.500   1.2330   0.05267   0.04354  -0.0668   0.4035   1.0001
   7.750   1.2693   0.05232   0.04321  -0.0665   0.3885   1.0001
   8.000   0.9518   0.09197   0.08269  -0.0656   0.3809   1.0001
   8.250   0.9787   0.09211   0.08294  -0.0640   0.3701   1.0001
   8.500   0.9362   0.10209   0.09289  -0.0663   0.3621   1.0001
   8.750   0.9449   0.10520   0.09607  -0.0660   0.3540   1.0001
   9.000   0.9113   0.11408   0.10494  -0.0684   0.3497   1.0001
   9.250   0.9442   0.11399   0.10496  -0.0667   0.3396   1.0001
   9.500   0.9191   0.12235   0.11333  -0.0693   0.3390   1.0001
   9.750   0.9142   0.12854   0.11957  -0.0711   0.3399   1.0001
  11.000   0.8307   0.16246   0.15365  -0.0870   0.4101   1.0001
  11.100   0.8392   0.16414   0.15537  -0.0873   0.4077   1.0001
  11.200   0.8534   0.16661   0.15790  -0.0876   0.4056   1.0001
  11.500   0.8421   0.16893   0.16023  -0.0886   0.3968   1.0001
  11.250   0.8643   0.16854   0.15987  -0.0879   0.4048   1.0001
  11.350   0.8505   0.16845   0.15974  -0.0882   0.4033   1.0001
  11.450   0.8413   0.16846   0.15974  -0.0885   0.3990   1.0001
  11.750   0.8723   0.17431   0.16574  -0.0891   0.3892   1.0001
  11.500   0.8421   0.16893   0.16023  -0.0886   0.3968   1.0001
  11.600   0.8488   0.17030   0.16163  -0.0888   0.3931   1.0001
  11.700   0.8623   0.17254   0.16392  -0.0889   0.3902   1.0001
  12.000   0.8569   0.17545   0.16686  -0.0902   0.3828   1.0001
  11.750   0.8723   0.17431   0.16574  -0.0891   0.3892   1.0001
  11.850   0.8703   0.17554   0.16696  -0.0895   0.3879   1.0001
  11.950   0.8579   0.17512   0.16652  -0.0900   0.3848   1.0001
  12.250   0.8710   0.17906   0.17058  -0.0909   0.3755   1.0001
  12.000   0.8569   0.17545   0.16686  -0.0902   0.3828   1.0001
  12.100   0.8597   0.17658   0.16803  -0.0905   0.3795   1.0001
  12.200   0.8662   0.17809   0.16958  -0.0908   0.3768   1.0001
  12.500   0.8790   0.18302   0.17459  -0.0919   0.3707   1.0001
  12.750   0.8826   0.18516   0.17679  -0.0927   0.3606   1.0001
  13.000   0.9000   0.19046   0.18218  -0.0935   0.3557   1.0001
  13.250   0.8943   0.19141   0.18316  -0.0949   0.3463   1.0001
  13.500   0.9135   0.19686   0.18872  -0.0955   0.3397   1.0001
  13.750   0.9105   0.19798   0.18990  -0.0970   0.3296   1.0001
  14.000   0.9206   0.20217   0.19416  -0.0980   0.3224   1.0001
  14.250   0.9486   0.20912   0.20127  -0.0977   0.3090   1.0001
  14.500   0.9308   0.20773   0.19984  -0.1005   0.3004   1.0001
  14.750   0.9413   0.21191   0.20410  -0.1014   0.2903   1.0001
  15.000   0.9571   0.21696   0.20924  -0.1016   0.2768   1.0001
  15.250   0.9726   0.22210   0.21449  -0.1019   0.2623   1.0001
  15.500   0.9609   0.22162   0.21396  -0.1053   0.2534   1.0001
  15.750   0.9697   0.22585   0.21825  -0.1065   0.2441   1.0001
  16.000   0.9906   0.23238   0.22486  -0.1061   0.2321   1.0001
  16.250   0.9821   0.23233   0.22477  -0.1098   0.2244   1.0001
  16.500   1.0011   0.23889   0.23140  -0.1097   0.2172   1.0001
  16.750   0.9970   0.23941   0.23189  -0.1132   0.2093   1.0001
  17.000   1.0181   0.24672   0.23928  -0.1126   0.2029   1.0001
  17.250   1.0113   0.24654   0.23905  -0.1169   0.1976   1.0001
  17.500   1.0297   0.25215   0.24476  -0.1166   0.1900   1.0001
  17.750   1.0301   0.25449   0.24706  -0.1199   0.1869   1.0001
  18.000   1.0346   0.25663   0.24922  -0.1224   0.1799   1.0001
  18.250   1.0556   0.26419   0.25687  -0.1216   0.1752   1.0001
  18.500   1.0531   0.26494   0.25756  -0.1257   0.1730   1.0001
  18.750   1.0567   0.26666   0.25929  -0.1286   0.1667   1.0001
  19.000   1.0746   0.27291   0.26562  -0.1282   0.1615   1.0001
  19.250   1.0790   0.27611   0.26880  -0.1310   0.1597   1.0001
  19.500   1.0794   0.27668   0.26935  -0.1350   0.1554   1.0001
  19.750   1.0883   0.27991   0.27262  -0.1368   0.1509   1.0001
  20.000   1.1074   0.28802   0.28082  -0.1360   0.1471   1.0001
   0.000   0.4703   0.03700   0.02674  -0.0870   0.7840   1.0001
  -0.250   0.4389   0.03643   0.02625  -0.0863   0.7991   1.0001
  -0.500   0.4063   0.03588   0.02581  -0.0853   0.8145   1.0001
  -0.750   0.3726   0.03533   0.02538  -0.0842   0.8301   1.0001
  -1.000   0.3384   0.03475   0.02495  -0.0828   0.8457   1.0001
  -1.250   0.3024   0.03418   0.02454  -0.0811   0.8615   1.0001
  -1.500   0.2656   0.03357   0.02414  -0.0792   0.8772   1.0001
  -1.750   0.2273   0.03294   0.02375  -0.0769   0.8930   1.0001
  -2.000   0.1874   0.03227   0.02339  -0.0742   0.9088   1.0001
  -2.250   0.1456   0.03155   0.02306  -0.0710   0.9244   1.0001
  -2.500   0.0974   0.03075   0.02310  -0.0666   0.9399   1.0001
  -2.750   0.0604   0.03327   0.02335  -0.0674   0.9514   0.4144
  -3.000   0.0097   0.03388   0.02351  -0.0631   0.9636   0.3197
  -3.250  -0.0407   0.03432   0.02386  -0.0587   0.9760   0.2669
  -3.500  -0.0929   0.03483   0.02441  -0.0538   0.9880   0.2345
  -3.750  -0.1493   0.03545   0.02524  -0.0480   0.9995   0.2127
  -4.000  -0.1738   0.03619   0.02614  -0.0474   0.9999   0.2028
  -4.250  -0.1969   0.03695   0.02709  -0.0471   0.9999   0.1946
  -4.500  -0.2195   0.03823   0.02842  -0.0468   0.9999   0.1903
  -4.750  -0.2464   0.03974   0.03052  -0.0458   0.9999   0.1866
  -5.000  -0.2722   0.04154   0.03276  -0.0446   0.9999   0.1832
  -5.250  -0.2986   0.04403   0.03571  -0.0430   0.9999   0.1846
  -5.500  -0.3233   0.04686   0.03887  -0.0415   0.9999   0.1879
  -5.750  -0.3479   0.04992   0.04231  -0.0397   0.9999   0.1923
  -6.500  -0.4309   0.07845   0.07294   0.0162   0.9999   0.4340
  -6.750  -0.4301   0.08051   0.07495   0.0129   0.9999   0.4150
  -7.000  -0.4264   0.08250   0.07687   0.0098   0.9999   0.3974
  -7.750  -0.3952   0.08769   0.08179   0.0011   0.9999   0.3550
  -8.000  -0.4033   0.09054   0.08459  -0.0023   0.9999   0.3416
  -8.250  -0.3713   0.09050   0.08439  -0.0056   0.9999   0.3316
  -8.500  -0.3650   0.09261   0.08640  -0.0088   0.9999   0.3227
  -8.750  -0.3938   0.09719   0.09101  -0.0113   0.9999   0.3087
  -9.000  -0.3379   0.09527   0.08881  -0.0158   0.9999   0.3056
  -9.250  -0.3309   0.09673   0.09017  -0.0187   0.9999   0.2952
  -9.500  -0.3243   0.09901   0.09233  -0.0208   0.9999   0.2891
  -9.750  -0.3153   0.10030   0.09351  -0.0228   0.9999   0.2792
 -10.000  -0.3215   0.10373   0.09687  -0.0241   0.9999   0.2730
 -10.250  -0.3082   0.10460   0.09761  -0.0252   0.9999   0.2635
 -10.000  -0.3215   0.10373   0.09687  -0.0241   0.9999   0.2730
 -10.100  -0.3079   0.10335   0.09640  -0.0245   0.9999   0.2695
 -10.200  -0.3061   0.10401   0.09703  -0.0249   0.9999   0.2655
 -10.500  -0.3246   0.10906   0.10205  -0.0264   0.9999   0.2567
 -10.750  -0.3082   0.10951   0.10237  -0.0263   0.9999   0.2478
 -11.000  -0.3308   0.11471   0.10757  -0.0276   0.9999   0.2401
 -11.250  -0.3124   0.11483   0.10756  -0.0265   0.9999   0.2323
 -11.000  -0.3308   0.11470   0.10757  -0.0276   0.9999   0.2401
 -11.100  -0.3169   0.11407   0.10685  -0.0268   0.9999   0.2380
 -11.200  -0.3120   0.11438   0.10712  -0.0265   0.9999   0.2343
 -11.500  -0.3544   0.12269   0.11549  -0.0289   0.9999   0.2241
 -11.750  -0.3226   0.12103   0.11366  -0.0263   0.9999   0.2203
 -12.000  -0.3255   0.12347   0.11605  -0.0259   0.9999   0.2126
 -12.250  -0.3568   0.13074   0.12337  -0.0275   0.9999   0.2070
 -12.500  -0.3336   0.12962   0.12213  -0.0248   0.9999   0.2028
 -12.750  -0.3396   0.13239   0.12487  -0.0244   0.9999   0.1953
 -13.000  -0.3648   0.13922   0.13172  -0.0255   0.9999   0.1901
 -13.250  -0.3474   0.13848   0.13088  -0.0228   0.9999   0.1859
 -13.500  -0.3531   0.14126   0.13363  -0.0221   0.9999   0.1795
 -13.750  -0.3884   0.15009   0.14255  -0.0240   0.9999   0.1743
 -14.000  -0.3736   0.14973   0.14207  -0.0212   0.9999   0.1727
 -14.250  -0.3676   0.15040   0.14268  -0.0192   0.9999   0.1678
 -14.500  -0.3766   0.15367   0.14595  -0.0186   0.9999   0.1620
 -14.750  -0.4072   0.16284   0.15516  -0.0199   0.9999   0.1574
 -15.000  -0.3911   0.16094   0.15317  -0.0168   0.9999   0.1555
 -15.250  -0.3915   0.16250   0.15469  -0.0151   0.9999   0.1506
 -15.500  -0.4004   0.16581   0.15800  -0.0143   0.9999   0.1462
 -15.750  -0.4275   0.17427   0.16652  -0.0153   0.9999   0.1422
 -16.000  -0.4262   0.17609   0.16827  -0.0132   0.9999   0.1409
 -16.250  -0.4198   0.17530   0.16743  -0.0104   0.9999   0.1378
 -16.500  -0.4255   0.17773   0.16984  -0.0090   0.9999   0.1330
 -16.750  -0.4378   0.18182   0.17394  -0.0085   0.9999   0.1288
 -17.000  -0.4671   0.19316   0.18531  -0.0094   0.9999   0.1260
 -17.250  -0.4568   0.19045   0.18253  -0.0062   0.9999   0.1251
 -17.500  -0.4561   0.19049   0.18253  -0.0035   0.9999   0.1223
 -17.750  -0.4628   0.19297   0.18500  -0.0018   0.9999   0.1187
 -18.000  -0.4726   0.19635   0.18838  -0.0007   0.9999   0.1152
 -18.250  -0.4928   0.20424   0.19631  -0.0012   0.9999   0.1119
 -18.500  -0.5000   0.20812   0.20015   0.0005   0.9999   0.1107
 -18.750  -0.4974   0.20642   0.19841   0.0038   0.9999   0.1090
 -19.000  -0.5032   0.20822   0.20019   0.0061   0.9999   0.1059
 -19.250  -0.5118   0.21111   0.20308   0.0077   0.9999   0.1030
 -19.500  -0.5221   0.21467   0.20664   0.0089   0.9999   0.1004
 -19.750  -0.5374   0.22110   0.21310   0.0092   0.9999   0.0981
 -20.000  -0.5510   0.22825   0.22023   0.0101   0.9999   0.0970
