  
       XFOIL         Version 6.99
  
 Calculated polar for: SD5060 (9.5%)                                   
  
 1 1 Reynolds number fixed          Mach number fixed         
  
 xtrf =   1.000 (top)        1.000 (bottom)  
 Mach =   0.000     Re =     0.050 e 6     Ncrit =   9.000
  
   alpha    CL        CD       CDp       CM     Top_Xtr  Bot_Xtr
  ------ -------- --------- --------- -------- -------- --------
   0.000   0.0115   0.02011   0.01070  -0.0264   1.0000   1.0000
   0.250   0.0306   0.02067   0.01109  -0.0264   1.0000   1.0000
   0.500   0.0493   0.02128   0.01156  -0.0264   1.0000   1.0000
   0.750   0.1014   0.02251   0.01262  -0.0325   0.9848   1.0000
   1.000   0.1531   0.02369   0.01369  -0.0383   0.9685   1.0000
   1.250   0.1994   0.02470   0.01462  -0.0430   0.9509   1.0000
   1.500   0.2465   0.02568   0.01555  -0.0475   0.9327   1.0000
   1.750   0.2969   0.02661   0.01647  -0.0523   0.9142   1.0000
   2.000   0.3393   0.02738   0.01725  -0.0554   0.8943   1.0000
   2.250   0.3825   0.02806   0.01796  -0.0584   0.8736   1.0000
   2.500   0.4388   0.02850   0.01850  -0.0629   0.8537   1.0000
   2.750   0.4739   0.02896   0.01903  -0.0639   0.8306   1.0000
   3.000   0.5284   0.02890   0.01910  -0.0669   0.8098   1.0000
   3.250   0.5607   0.02909   0.01939  -0.0666   0.7856   1.0000
   3.500   0.6076   0.02856   0.01898  -0.0670   0.7646   1.0000
   3.750   0.6358   0.02851   0.01903  -0.0655   0.7391   1.0000
   4.000   0.6683   0.02809   0.01873  -0.0637   0.7142   1.0000
   4.250   0.7042   0.02718   0.01790  -0.0616   0.6905   1.0000
   4.500   0.7317   0.02669   0.01747  -0.0590   0.6621   1.0000
   4.750   0.7593   0.02612   0.01696  -0.0562   0.6323   1.0000
   5.000   0.7846   0.02577   0.01660  -0.0534   0.5990   1.0000
   5.250   0.8093   0.02554   0.01632  -0.0507   0.5630   1.0000
   5.500   0.8347   0.02540   0.01607  -0.0481   0.5265   1.0000
   5.750   0.8577   0.02571   0.01626  -0.0459   0.4879   1.0000
   6.000   0.8810   0.02623   0.01663  -0.0440   0.4515   1.0000
   6.250   0.9036   0.02707   0.01736  -0.0424   0.4174   1.0000
   6.500   0.9264   0.02805   0.01826  -0.0409   0.3869   1.0000
   6.750   0.9492   0.02926   0.01941  -0.0397   0.3604   1.0000
   7.000   0.9733   0.03045   0.02044  -0.0387   0.3367   1.0000
   7.250   0.9941   0.03205   0.02220  -0.0376   0.3151   1.0000
   7.500   1.0173   0.03351   0.02366  -0.0367   0.2957   1.0000
   7.750   1.0395   0.03522   0.02539  -0.0357   0.2782   1.0000
   8.000   1.0590   0.03721   0.02759  -0.0347   0.2621   1.0000
   8.250   1.0775   0.03924   0.02982  -0.0336   0.2465   1.0000
   8.500   1.0964   0.04153   0.03227  -0.0326   0.2330   1.0000
   8.750   1.1136   0.04376   0.03470  -0.0315   0.2191   1.0000
   9.000   1.1332   0.04616   0.03716  -0.0305   0.2066   1.0000
   9.250   1.1365   0.04955   0.04114  -0.0288   0.1967   1.0000
   9.500   1.1428   0.05298   0.04489  -0.0274   0.1875   1.0000
   9.750   1.1607   0.05574   0.04766  -0.0265   0.1773   1.0000
  10.000   1.1439   0.06089   0.05343  -0.0247   0.1740   1.0000
  10.250   1.1253   0.06611   0.05902  -0.0235   0.1713   1.0000
  10.500   1.1125   0.07067   0.06377  -0.0226   0.1676   1.0000
  10.750   1.0944   0.07567   0.06891  -0.0220   0.1660   1.0000
  11.000   1.0794   0.08098   0.07429  -0.0220   0.1646   1.0000
  11.000   1.0794   0.08098   0.07429  -0.0220   0.1646   1.0000
  11.100   1.0731   0.08335   0.07668  -0.0222   0.1642   1.0000
  12.000   0.6683   0.14733   0.14043  -0.0626   0.3371   1.0000
  11.750   0.6456   0.14168   0.13465  -0.0623   0.3458   1.0000
  11.850   0.6501   0.14312   0.13613  -0.0624   0.3414   1.0000
  11.950   0.6710   0.14682   0.13993  -0.0624   0.3378   1.0000
  12.250   0.6525   0.14805   0.14117  -0.0633   0.3272   1.0000
  12.000   0.6683   0.14734   0.14044  -0.0626   0.3371   1.0000
  12.100   0.6529   0.14676   0.13984  -0.0631   0.3346   1.0000
  12.200   0.6492   0.14727   0.14037  -0.0633   0.3297   1.0000
  12.500   0.6517   0.15075   0.14391  -0.0638   0.3177   1.0000
  12.250   0.6525   0.14805   0.14117  -0.0633   0.3272   1.0000
  12.350   0.6716   0.15177   0.14493  -0.0632   0.3224   1.0000
  12.450   0.6562   0.15089   0.14405  -0.0637   0.3202   1.0000
  12.750   0.6617   0.15456   0.14779  -0.0641   0.3063   1.0000
  13.000   0.6663   0.15738   0.15068  -0.0645   0.2956   1.0000
  13.250   0.6591   0.15934   0.15267  -0.0656   0.2895   1.0000
  13.500   0.6790   0.16497   0.15838  -0.0657   0.2786   1.0000
  13.750   0.6665   0.16501   0.15845  -0.0670   0.2687   1.0000
  14.000   0.6700   0.16835   0.16183  -0.0678   0.2616   1.0000
  14.250   0.6776   0.17172   0.16527  -0.0684   0.2523   1.0000
  14.500   0.6749   0.17421   0.16779  -0.0699   0.2466   1.0000
  14.750   0.6950   0.18034   0.17401  -0.0697   0.2352   1.0000
  15.000   0.6797   0.17973   0.17341  -0.0719   0.2285   1.0000
  15.250   0.7025   0.18701   0.18077  -0.0717   0.2209   1.0000
  15.500   0.6867   0.18612   0.17988  -0.0743   0.2154   1.0000
  15.750   0.7049   0.19239   0.18621  -0.0742   0.2062   1.0000
  16.000   0.6939   0.19235   0.18619  -0.0766   0.2000   1.0000
  16.250   0.7174   0.20038   0.19429  -0.0760   0.1923   1.0000
  16.500   0.7022   0.19921   0.19312  -0.0790   0.1885   1.0000
  16.750   0.7274   0.20776   0.20174  -0.0781   0.1782   1.0000
  17.000   0.7115   0.20620   0.20017  -0.0813   0.1757   1.0000
  17.250   0.7136   0.20891   0.20291  -0.0828   0.1687   1.0000
  17.500   0.7289   0.21560   0.20967  -0.0829   0.1635   1.0000
  17.750   0.7208   0.21581   0.20989  -0.0856   0.1598   1.0000
  18.000   0.7297   0.21989   0.21401  -0.0863   0.1521   1.0000
  18.250   0.7378   0.22530   0.21943  -0.0872   0.1493   1.0000
  18.500   0.7323   0.22615   0.22030  -0.0899   0.1456   1.0000
  18.750   0.7378   0.22964   0.22382  -0.0910   0.1398   1.0000
  19.000   0.7526   0.23689   0.23110  -0.0910   0.1358   1.0000
  19.250   0.7450   0.23691   0.23113  -0.0941   0.1329   1.0000
  19.500   0.7482   0.24007   0.23432  -0.0957   0.1280   1.0000
  19.750   0.7582   0.24502   0.23932  -0.0963   0.1239   1.0000
  20.000   0.7677   0.25131   0.24562  -0.0970   0.1221   1.0000
   0.000   0.0115   0.02011   0.01070  -0.0264   1.0000   1.0000
  -0.250  -0.0079   0.01961   0.01039  -0.0264   1.0000   1.0000
  -0.500  -0.0276   0.01915   0.01016  -0.0264   1.0000   1.0000
  -0.750  -0.0478   0.01874   0.01001  -0.0263   1.0000   1.0000
  -1.000  -0.0687   0.01839   0.00996  -0.0261   1.0000   1.0000
  -1.250  -0.0913   0.01810   0.01009  -0.0254   1.0000   1.0000
  -1.500  -0.1416   0.01867   0.01100  -0.0193   1.0000   0.8035
  -1.750  -0.1481   0.01946   0.01116  -0.0249   1.0000   0.6743
  -2.000  -0.1633   0.02008   0.01139  -0.0278   1.0000   0.5901
  -2.250  -0.1822   0.02065   0.01172  -0.0296   1.0000   0.5264
  -2.500  -0.2025   0.02122   0.01212  -0.0310   1.0000   0.4751
  -2.750  -0.2223   0.02182   0.01260  -0.0324   1.0000   0.4309
  -3.000  -0.2421   0.02247   0.01320  -0.0338   1.0000   0.3891
  -3.250  -0.2623   0.02323   0.01395  -0.0350   1.0000   0.3498
  -3.500  -0.2817   0.02409   0.01469  -0.0364   1.0000   0.3123
  -3.750  -0.3017   0.02511   0.01576  -0.0377   1.0000   0.2714
  -4.000  -0.3200   0.02606   0.01661  -0.0392   1.0000   0.2282
  -4.250  -0.3380   0.02718   0.01757  -0.0407   1.0000   0.1910
  -4.500  -0.3575   0.02869   0.01915  -0.0420   1.0000   0.1653
  -4.750  -0.3772   0.03069   0.02136  -0.0432   1.0000   0.1504
  -5.000  -0.3960   0.03300   0.02412  -0.0441   1.0000   0.1391
  -5.250  -0.4134   0.03555   0.02685  -0.0451   1.0000   0.1333
  -5.500  -0.4292   0.03928   0.03121  -0.0455   1.0000   0.1316
  -5.750  -0.4421   0.04339   0.03582  -0.0455   1.0000   0.1311
  -6.000  -0.4521   0.04779   0.04061  -0.0451   1.0000   0.1312
  -6.250  -0.4597   0.05243   0.04554  -0.0443   1.0000   0.1319
  -6.500  -0.4677   0.05694   0.05019  -0.0436   1.0000   0.1334
  -6.750  -0.4570   0.06791   0.06156  -0.0335   1.0000   0.1601
  -7.000  -0.4077   0.08345   0.07702  -0.0055   1.0000   0.3163
  -7.250  -0.4096   0.08664   0.08012  -0.0055   1.0000   0.3074
  -7.500  -0.4228   0.09054   0.08402  -0.0061   1.0000   0.2952
  -8.000  -0.4208   0.09569   0.08900  -0.0053   1.0000   0.2719
  -8.250  -0.4329   0.09988   0.09317  -0.0053   1.0000   0.2652
  -8.500  -0.4334   0.10244   0.09566  -0.0045   1.0000   0.2550
  -8.750  -0.4361   0.10595   0.09911  -0.0036   1.0000   0.2490
  -9.000  -0.4432   0.10918   0.10231  -0.0033   1.0000   0.2398
  -9.250  -0.4468   0.11282   0.10589  -0.0023   1.0000   0.2347
  -9.500  -0.4502   0.11563   0.10867  -0.0014   1.0000   0.2257
  -9.750  -0.4569   0.11959   0.11258  -0.0007   1.0000   0.2201
 -10.000  -0.4604   0.12234   0.11530   0.0002   1.0000   0.2109
 -10.250  -0.4671   0.12632   0.11924   0.0010   1.0000   0.2053
 -10.000  -0.4604   0.12234   0.11529   0.0002   1.0000   0.2109
 -10.100  -0.4812   0.12669   0.11969  -0.0013   1.0000   0.2073
 -10.200  -0.4701   0.12627   0.11921   0.0004   1.0000   0.2061
 -10.500  -0.4691   0.12891   0.12182   0.0022   1.0000   0.1969
 -10.750  -0.4876   0.13480   0.12771   0.0019   1.0000   0.1921
 -11.000  -0.4770   0.13560   0.12843   0.0047   1.0000   0.1868
 -11.250  -0.4905   0.13995   0.13278   0.0048   1.0000   0.1803
 -11.500  -0.5011   0.14489   0.13770   0.0055   1.0000   0.1772
 -11.750  -0.4937   0.14589   0.13863   0.0081   1.0000   0.1722
 -12.000  -0.5052   0.14996   0.14271   0.0086   1.0000   0.1663
 -12.250  -0.5198   0.15579   0.14853   0.0090   1.0000   0.1628
 -12.500  -0.5123   0.15633   0.14900   0.0118   1.0000   0.1589
 -12.750  -0.5225   0.16010   0.15278   0.0125   1.0000   0.1521
 -13.000  -0.5389   0.16640   0.15907   0.0127   1.0000   0.1485
 -13.250  -0.5324   0.16662   0.15923   0.0157   1.0000   0.1452
 -13.500  -0.5393   0.16972   0.16235   0.0170   1.0000   0.1395
 -13.750  -0.5719   0.18054   0.17321   0.0154   1.0000   0.1348
 -14.000  -0.5619   0.17932   0.17192   0.0188   1.0000   0.1339
 -14.250  -0.5598   0.17997   0.17253   0.0216   1.0000   0.1304
 -14.500  -0.5672   0.18309   0.17563   0.0232   1.0000   0.1261
 -14.750  -0.5815   0.18817   0.18074   0.0236   1.0000   0.1223
 -15.000  -0.5976   0.19541   0.18797   0.0241   1.0000   0.1203
 -15.250  -0.5930   0.19441   0.18691   0.0275   1.0000   0.1187
 -15.500  -0.5975   0.19639   0.18886   0.0298   1.0000   0.1150
 -15.750  -0.6066   0.19974   0.19221   0.0312   1.0000   0.1110
 -16.000  -0.6360   0.21237   0.20492   0.0296   1.0000   0.1067
 -16.250  -0.6311   0.21031   0.20280   0.0331   1.0000   0.1061
 -16.500  -0.6313   0.21002   0.20247   0.0364   1.0000   0.1038
 -16.750  -0.6383   0.21251   0.20494   0.0385   1.0000   0.1004
 -17.000  -0.6478   0.21588   0.20831   0.0401   1.0000   0.0974
 -17.250  -0.6608   0.22098   0.21343   0.0408   1.0000   0.0946
 -17.500  -0.6799   0.23109   0.22355   0.0408   1.0000   0.0929
 -17.750  -0.6790   0.22926   0.22167   0.0443   1.0000   0.0923
 -18.000  -0.6825   0.22948   0.22186   0.0474   1.0000   0.0907
 -18.250  -0.6898   0.23178   0.22415   0.0498   1.0000   0.0881
 -18.500  -0.6985   0.23475   0.22712   0.0517   1.0000   0.0856
 -18.750  -0.7083   0.23822   0.23058   0.0534   1.0000   0.0833
 -19.000  -0.7201   0.24310   0.23548   0.0544   1.0000   0.0812
 -19.250  -0.7400   0.25552   0.24795   0.0540   1.0000   0.0796
 -19.500  -0.7410   0.25316   0.24555   0.0576   1.0000   0.0792
 -19.750  -0.7445   0.25232   0.24468   0.0609   1.0000   0.0783
 -20.000  -0.7514   0.25371   0.24606   0.0637   1.0000   0.0763
