  
       XFOIL         Version 6.99
  
 Calculated polar for: SG6051                                          
  
 1 1 Reynolds number fixed          Mach number fixed         
  
 xtrf =   1.000 (top)        1.000 (bottom)  
 Mach =   0.000     Re =     0.050 e 6     Ncrit =   9.000
  
   alpha    CL        CD       CDp       CM     Top_Xtr  Bot_Xtr
  ------ -------- --------- --------- -------- -------- --------
   0.000  -0.0057   0.02998   0.01968  -0.0365   1.0000   1.0000
   0.250   0.0149   0.03072   0.02023  -0.0366   1.0000   1.0000
   0.500   0.0353   0.03149   0.02084  -0.0368   1.0000   1.0000
   0.750   0.0555   0.03231   0.02150  -0.0369   1.0000   1.0000
   1.000   0.0755   0.03316   0.02222  -0.0371   1.0000   1.0000
   1.250   0.0952   0.03406   0.02300  -0.0372   1.0000   1.0000
   1.500   0.1146   0.03499   0.02384  -0.0374   1.0000   1.0000
   1.750   0.1571   0.03644   0.02517  -0.0420   0.9898   1.0000
   2.000   0.1970   0.03787   0.02651  -0.0461   0.9791   1.0000
   2.250   0.2358   0.03931   0.02788  -0.0499   0.9681   1.0000
   2.500   0.2770   0.04084   0.02936  -0.0540   0.9568   1.0000
   2.750   0.3051   0.04198   0.03049  -0.0558   0.9455   1.0000
   3.000   0.3341   0.04321   0.03173  -0.0577   0.9336   1.0000
   3.250   0.3652   0.04452   0.03305  -0.0598   0.9210   1.0000
   3.500   0.3968   0.04584   0.03440  -0.0619   0.9077   1.0000
   3.750   0.4283   0.04715   0.03575  -0.0640   0.8940   1.0000
   4.000   0.4591   0.04844   0.03709  -0.0658   0.8797   1.0000
   4.250   0.4889   0.04969   0.03843  -0.0673   0.8647   1.0000
   4.500   0.5176   0.05091   0.03973  -0.0686   0.8492   1.0000
   4.750   0.5460   0.05209   0.04100  -0.0697   0.8330   1.0000
   5.000   0.5752   0.05322   0.04227  -0.0708   0.8163   1.0000
   5.250   0.6071   0.05427   0.04345  -0.0721   0.7992   1.0000
   5.500   0.6442   0.05515   0.04448  -0.0738   0.7819   1.0000
   5.750   0.6715   0.05605   0.04555  -0.0740   0.7637   1.0000
   6.000   0.6936   0.05697   0.04662  -0.0736   0.7442   1.0000
   6.250   0.7306   0.05734   0.04720  -0.0745   0.7252   1.0000
   6.500   0.7663   0.05753   0.04763  -0.0749   0.7056   1.0000
   6.750   0.7907   0.05794   0.04824  -0.0740   0.6839   1.0000
   7.000   0.8474   0.05624   0.04689  -0.0749   0.6645   1.0000
   7.250   0.8668   0.05638   0.04726  -0.0729   0.6401   1.0000
   7.500   0.9290   0.05267   0.04398  -0.0723   0.6183   1.0000
   7.750   1.0096   0.04543   0.03733  -0.0705   0.5941   1.0000
   8.000   1.0926   0.03698   0.02939  -0.0682   0.5552   1.0000
   8.250   1.1376   0.03231   0.02477  -0.0639   0.4908   1.0000
   8.500   1.1445   0.03197   0.02393  -0.0579   0.4087   1.0000
   8.750   1.1419   0.03358   0.02468  -0.0522   0.3300   1.0000
   9.000   1.1404   0.03597   0.02639  -0.0476   0.2692   1.0000
   9.250   1.1505   0.03848   0.02847  -0.0449   0.2210   1.0000
   9.500   1.1807   0.04125   0.03084  -0.0448   0.1824   1.0000
   9.750   1.2167   0.04421   0.03361  -0.0457   0.1562   1.0000
  10.000   1.2428   0.04722   0.03679  -0.0453   0.1404   1.0000
  10.250   1.2699   0.05063   0.04030  -0.0452   0.1284   1.0000
  10.500   1.2841   0.05365   0.04367  -0.0434   0.1199   1.0000
  10.750   1.2958   0.05743   0.04776  -0.0417   0.1138   1.0000
  11.000   1.2962   0.06106   0.05191  -0.0386   0.1105   1.0000
  11.250   1.3209   0.06543   0.05612  -0.0390   0.1033   1.0000
  11.500   1.3069   0.06885   0.06009  -0.0347   0.1022   1.0000
  11.750   1.2915   0.07261   0.06428  -0.0308   0.1017   1.0000
  12.000   1.2733   0.07640   0.06840  -0.0269   0.1016   1.0000
  12.250   1.2532   0.08050   0.07279  -0.0237   0.1018   1.0000
  12.500   1.2317   0.08497   0.07751  -0.0213   0.1021   1.0000
  12.750   1.2098   0.08986   0.08262  -0.0197   0.1025   1.0000
  13.000   1.1887   0.09523   0.08817  -0.0190   0.1029   1.0000
  13.000   1.1251   0.09793   0.09120  -0.0207   0.1091   1.0000
  13.100   1.1054   0.10172   0.09506  -0.0220   0.1113   1.0000
  13.200   1.0910   0.10514   0.09854  -0.0233   0.1127   1.0000
  13.500   1.0594   0.11514   0.10862  -0.0272   0.1152   1.0000
  13.750   1.0421   0.12326   0.11677  -0.0304   0.1163   1.0000
  14.250   0.8777   0.18248   0.17542  -0.0784   0.2744   1.0000
  14.000   0.8725   0.17863   0.17154  -0.0774   0.2830   1.0000
  14.100   0.8693   0.17971   0.17261  -0.0782   0.2792   1.0000
  14.200   0.8743   0.18142   0.17435  -0.0784   0.2754   1.0000
  14.500   0.8931   0.18873   0.18174  -0.0792   0.2708   1.0000
  14.750   0.8814   0.19045   0.18341  -0.0817   0.2628   1.0000
  15.000   0.8932   0.19535   0.18834  -0.0824   0.2549   1.0000
  15.250   0.9033   0.19928   0.19231  -0.0830   0.2442   1.0000
  15.500   0.9020   0.20281   0.19581  -0.0853   0.2398   1.0000
  15.750   0.9123   0.20678   0.19982  -0.0861   0.2304   1.0000
  16.000   0.9123   0.21007   0.20307  -0.0884   0.2244   1.0000
  16.250   0.9418   0.21825   0.21135  -0.0869   0.2139   1.0000
  16.500   0.9243   0.21722   0.21023  -0.0916   0.2087   1.0000
  16.750   0.9394   0.22218   0.21525  -0.0919   0.2015   1.0000
  17.000   0.9410   0.22550   0.21852  -0.0945   0.1973   1.0000
  17.250   0.9487   0.22869   0.22174  -0.0959   0.1886   1.0000
  17.500   0.9569   0.23321   0.22625  -0.0975   0.1838   1.0000
  17.750   0.9609   0.23553   0.22860  -0.0999   0.1756   1.0000
  18.000   0.9821   0.24376   0.23689  -0.0991   0.1712   1.0000
  18.250   0.9737   0.24276   0.23582  -0.1041   0.1666   1.0000
  18.500   0.9845   0.24675   0.23984  -0.1053   0.1605   1.0000
  18.750   0.9984   0.25321   0.24632  -0.1058   0.1569   1.0000
  19.000   0.9958   0.25320   0.24627  -0.1102   0.1515   1.0000
  19.250   1.0132   0.25938   0.25252  -0.1097   0.1448   1.0000
  19.500   1.0161   0.26201   0.25511  -0.1129   0.1423   1.0000
  19.750   1.0187   0.26344   0.25652  -0.1164   0.1368   1.0000
  20.000   1.0311   0.26807   0.26120  -0.1172   0.1322   1.0000
   0.000  -0.0057   0.02998   0.01968  -0.0365   1.0000   1.0000
  -0.250  -0.0266   0.02929   0.01921  -0.0364   1.0000   1.0000
  -0.500  -0.0477   0.02863   0.01878  -0.0362   1.0000   1.0000
  -0.750  -0.0691   0.02801   0.01842  -0.0361   1.0000   1.0000
  -1.000  -0.0907   0.02743   0.01816  -0.0359   1.0000   1.0000
  -1.250  -0.1125   0.02689   0.01795  -0.0357   1.0000   1.0000
  -1.500  -0.1348   0.02639   0.01784  -0.0354   1.0000   1.0000
  -1.750  -0.1576   0.02594   0.01787  -0.0350   1.0000   1.0000
  -2.000  -0.1820   0.02556   0.01817  -0.0342   1.0000   1.0000
  -2.250  -0.1817   0.02711   0.01824  -0.0432   1.0000   0.5357
  -2.500  -0.2133   0.02925   0.01850  -0.0431   1.0000   0.2686
  -2.750  -0.2407   0.03012   0.01917  -0.0429   1.0000   0.2281
  -3.000  -0.2663   0.03101   0.02007  -0.0432   1.0000   0.2087
  -3.250  -0.2909   0.03198   0.02107  -0.0435   1.0000   0.1917
  -3.500  -0.3169   0.03313   0.02249  -0.0437   1.0000   0.1810
  -3.750  -0.3423   0.03458   0.02415  -0.0438   1.0000   0.1723
  -4.000  -0.3671   0.03604   0.02587  -0.0439   1.0000   0.1625
  -4.250  -0.3937   0.03827   0.02855  -0.0437   1.0000   0.1583
  -4.500  -0.4198   0.04054   0.03148  -0.0433   1.0000   0.1514
  -4.750  -0.4458   0.04378   0.03534  -0.0426   1.0000   0.1508
  -5.000  -0.4654   0.04682   0.03838  -0.0428   1.0000   0.1454
  -5.250  -0.4902   0.05244   0.04522  -0.0401   1.0000   0.1555
  -5.500  -0.5072   0.05671   0.04963  -0.0403   1.0000   0.1606
  -6.000  -0.4814   0.08678   0.08125   0.0076   1.0000   0.4425
  -6.250  -0.4590   0.08785   0.08220   0.0033   1.0000   0.4259
  -6.200  -0.4715   0.08818   0.08258   0.0044   1.0000   0.4270
  -6.500  -0.4420   0.08919   0.08344  -0.0014   1.0000   0.4101
  -6.250  -0.4590   0.08785   0.08220   0.0033   1.0000   0.4259
  -6.350  -0.4386   0.08742   0.08168   0.0005   1.0000   0.4229
  -6.450  -0.4539   0.08957   0.08387   0.0001   1.0000   0.4112
  -6.750  -0.4306   0.09092   0.08508  -0.0056   1.0000   0.3952
  -7.000  -0.4237   0.09300   0.08708  -0.0094   1.0000   0.3808
  -7.250  -0.4163   0.09495   0.08895  -0.0132   1.0000   0.3662
  -7.500  -0.4074   0.09670   0.09062  -0.0170   1.0000   0.3515
  -7.750  -0.3985   0.09841   0.09225  -0.0207   1.0000   0.3367
  -8.000  -0.3906   0.10019   0.09393  -0.0239   1.0000   0.3219
  -8.250  -0.3849   0.10220   0.09583  -0.0266   1.0000   0.3071
  -8.500  -0.3862   0.10494   0.09850  -0.0286   1.0000   0.2929
  -8.750  -0.3938   0.10840   0.10192  -0.0303   1.0000   0.2788
  -9.000  -0.3731   0.10895   0.10231  -0.0303   1.0000   0.2682
  -9.250  -0.3710   0.11171   0.10498  -0.0304   1.0000   0.2573
  -9.500  -0.3766   0.11512   0.10834  -0.0307   1.0000   0.2457
  -9.750  -0.3877   0.11906   0.11225  -0.0313   1.0000   0.2330
 -10.000  -0.4050   0.12378   0.11697  -0.0324   1.0000   0.2194
 -10.250  -0.3838   0.12416   0.11721  -0.0299   1.0000   0.2128
 -10.500  -0.4040   0.12956   0.12262  -0.0308   1.0000   0.2040
 -10.750  -0.3915   0.13065   0.12361  -0.0286   1.0000   0.1965
 -11.000  -0.4133   0.13656   0.12956  -0.0295   1.0000   0.1893
 -11.250  -0.3995   0.13729   0.13019  -0.0269   1.0000   0.1832
 -11.500  -0.4285   0.14443   0.13737  -0.0285   1.0000   0.1748
 -11.750  -0.4109   0.14435   0.13718  -0.0252   1.0000   0.1714
 -12.000  -0.4191   0.14774   0.14056  -0.0247   1.0000   0.1632
 -12.250  -0.4282   0.15230   0.14508  -0.0240   1.0000   0.1589
 -12.500  -0.4238   0.15375   0.14647  -0.0218   1.0000   0.1528
 -12.750  -0.4540   0.16203   0.15480  -0.0234   1.0000   0.1453
 -13.000  -0.4403   0.16155   0.15423  -0.0200   1.0000   0.1434
 -13.250  -0.4408   0.16360   0.15623  -0.0181   1.0000   0.1380
 -13.500  -0.4549   0.16822   0.16087  -0.0178   1.0000   0.1328
 -13.750  -0.4693   0.17431   0.16696  -0.0172   1.0000   0.1303
 -14.000  -0.4619   0.17415   0.16671  -0.0142   1.0000   0.1277
 -14.250  -0.4664   0.17668   0.16924  -0.0123   1.0000   0.1231
 -14.500  -0.4781   0.18082   0.17338  -0.0116   1.0000   0.1189
 -14.750  -0.5013   0.18980   0.18238  -0.0120   1.0000   0.1160
 -15.000  -0.4941   0.18869   0.18120  -0.0087   1.0000   0.1149
 -15.250  -0.4955   0.18992   0.18240  -0.0060   1.0000   0.1117
 -15.500  -0.5029   0.19288   0.18534  -0.0043   1.0000   0.1079
 -15.750  -0.5148   0.19716   0.18963  -0.0035   1.0000   0.1042
 -16.000  -0.5366   0.20676   0.19924  -0.0038   1.0000   0.1016
 -16.250  -0.5323   0.20519   0.19761  -0.0003   1.0000   0.1007
 -16.500  -0.5350   0.20603   0.19842   0.0027   1.0000   0.0979
 -16.750  -0.5427   0.20879   0.20117   0.0047   1.0000   0.0943
 -17.000  -0.5528   0.21238   0.20478   0.0061   1.0000   0.0911
 -17.250  -0.5726   0.22119   0.21364   0.0056   1.0000   0.0882
 -17.500  -0.5819   0.22600   0.21841   0.0074   1.0000   0.0874
 -17.750  -0.5819   0.22473   0.21709   0.0109   1.0000   0.0867
 -18.000  -0.5863   0.22539   0.21773   0.0140   1.0000   0.0850
 -18.250  -0.5939   0.22778   0.22011   0.0164   1.0000   0.0826
 -18.500  -0.6027   0.23074   0.22307   0.0185   1.0000   0.0802
 -18.750  -0.6123   0.23405   0.22638   0.0203   1.0000   0.0780
 -19.000  -0.6231   0.23816   0.23050   0.0217   1.0000   0.0760
 -19.250  -0.6420   0.24886   0.24124   0.0213   1.0000   0.0742
 -19.500  -0.6507   0.25312   0.24549   0.0234   1.0000   0.0737
 -19.750  -0.6531   0.25147   0.24381   0.0270   1.0000   0.0733
 -20.000  -0.6582   0.25129   0.24360   0.0304   1.0000   0.0724
