  
       XFOIL         Version 6.99
  
 Calculated polar for: SD6080 (9.2%)                                   
  
 1 1 Reynolds number fixed          Mach number fixed         
  
 xtrf =   1.000 (top)        1.000 (bottom)  
 Mach =   0.000     Re =     0.050 e 6     Ncrit =   9.000
  
   alpha    CL        CD       CDp       CM     Top_Xtr  Bot_Xtr
  ------ -------- --------- --------- -------- -------- --------
   0.000   0.1301   0.02641   0.01718  -0.0601   0.9649   1.0000
   0.250   0.1682   0.02743   0.01786  -0.0632   0.9545   1.0000
   0.500   0.2089   0.02850   0.01863  -0.0666   0.9441   1.0000
   0.750   0.2383   0.02934   0.01926  -0.0681   0.9330   1.0000
   1.000   0.2698   0.03028   0.02001  -0.0699   0.9218   1.0000
   1.250   0.3037   0.03128   0.02083  -0.0720   0.9108   1.0000
   1.500   0.3415   0.03231   0.02173  -0.0747   0.8996   1.0000
   1.750   0.3696   0.03323   0.02255  -0.0758   0.8876   1.0000
   2.000   0.3963   0.03417   0.02341  -0.0766   0.8754   1.0000
   2.250   0.4244   0.03515   0.02433  -0.0776   0.8631   1.0000
   2.500   0.4545   0.03615   0.02528  -0.0788   0.8507   1.0000
   2.750   0.4862   0.03713   0.02623  -0.0802   0.8379   1.0000
   3.000   0.5192   0.03807   0.02718  -0.0816   0.8249   1.0000
   3.250   0.5539   0.03896   0.02808  -0.0831   0.8117   1.0000
   3.500   0.5824   0.03986   0.02902  -0.0836   0.7976   1.0000
   3.750   0.6102   0.04075   0.02998  -0.0840   0.7832   1.0000
   4.000   0.6393   0.04160   0.03088  -0.0845   0.7685   1.0000
   4.250   0.6702   0.04235   0.03172  -0.0850   0.7535   1.0000
   4.500   0.6971   0.04315   0.03260  -0.0849   0.7379   1.0000
   4.750   0.7171   0.04413   0.03370  -0.0840   0.7210   1.0000
   5.000   0.7411   0.04496   0.03463  -0.0835   0.7041   1.0000
   5.250   0.7698   0.04554   0.03535  -0.0832   0.6869   1.0000
   5.500   0.8047   0.04570   0.03568  -0.0831   0.6698   1.0000
   5.750   0.8485   0.04517   0.03540  -0.0832   0.6531   1.0000
   6.000   0.8945   0.04397   0.03444  -0.0826   0.6369   1.0000
   6.250   0.9070   0.04504   0.03564  -0.0805   0.6156   1.0000
   6.500   0.9484   0.04366   0.03455  -0.0791   0.5974   1.0000
   6.750   1.0021   0.04090   0.03207  -0.0776   0.5797   1.0000
   7.000   1.0281   0.04040   0.03181  -0.0753   0.5565   1.0000
   7.250   1.0854   0.03682   0.02845  -0.0735   0.5341   1.0000
   7.500   1.1221   0.03509   0.02685  -0.0712   0.5061   1.0000
   7.750   1.1491   0.03433   0.02622  -0.0687   0.4746   1.0000
   8.000   1.1742   0.03382   0.02575  -0.0661   0.4400   1.0000
   8.250   1.2015   0.03334   0.02514  -0.0638   0.4032   1.0000
   8.500   1.2194   0.03386   0.02560  -0.0612   0.3659   1.0000
   8.750   1.2365   0.03472   0.02634  -0.0587   0.3290   1.0000
   9.000   1.2520   0.03590   0.02733  -0.0563   0.2923   1.0000
   9.250   1.2631   0.03760   0.02892  -0.0537   0.2575   1.0000
   9.500   1.2719   0.03942   0.03056  -0.0510   0.2228   1.0000
   9.750   1.2755   0.04122   0.03208  -0.0481   0.1897   1.0000
  10.000   1.2747   0.04328   0.03402  -0.0450   0.1615   1.0000
  10.250   1.2801   0.04593   0.03644  -0.0426   0.1358   1.0000
  10.500   1.2872   0.04923   0.03995  -0.0404   0.1189   1.0000
  10.750   1.2980   0.05262   0.04350  -0.0387   0.1068   1.0000
  11.000   1.3147   0.05613   0.04697  -0.0379   0.0969   1.0000
  11.250   1.3100   0.05990   0.05133  -0.0352   0.0942   1.0000
  11.500   1.3029   0.06380   0.05566  -0.0327   0.0922   1.0000
  11.750   1.2922   0.06778   0.05998  -0.0305   0.0910   1.0000
  12.000   1.2764   0.07200   0.06452  -0.0287   0.0905   1.0000
  12.250   1.2547   0.07671   0.06953  -0.0277   0.0907   1.0000
  12.500   1.2286   0.08205   0.07514  -0.0278   0.0914   1.0000
  12.750   1.1995   0.08828   0.08161  -0.0293   0.0925   1.0000
  13.000   1.1700   0.09540   0.08891  -0.0320   0.0939   1.0000
  13.250   1.1421   0.10325   0.09689  -0.0358   0.0952   1.0000
  13.500   1.1170   0.11174   0.10545  -0.0401   0.0964   1.0000
  13.750   1.0983   0.12022   0.11397  -0.0443   0.0973   1.0000
  13.750   1.0983   0.12022   0.11397  -0.0443   0.0973   1.0000
  14.250   1.0055   0.15872   0.15220  -0.0697   0.1232   1.0000
  14.250   1.0055   0.15872   0.15220  -0.0697   0.1232   1.0000
  15.000   0.7321   0.17802   0.17187  -0.0806   0.2553   1.0000
  15.250   0.7375   0.18178   0.17570  -0.0813   0.2442   1.0000
  15.100   0.7488   0.18183   0.17575  -0.0798   0.2470   1.0000
  15.200   0.7412   0.18180   0.17572  -0.0808   0.2458   1.0000
  15.500   0.7501   0.18682   0.18079  -0.0815   0.2326   1.0000
  15.250   0.7375   0.18179   0.17571  -0.0813   0.2442   1.0000
  15.350   0.7370   0.18266   0.17659  -0.0818   0.2393   1.0000
  15.450   0.7532   0.18677   0.18075  -0.0810   0.2329   1.0000
  15.750   0.7427   0.18821   0.18220  -0.0834   0.2239   1.0000
  15.500   0.7501   0.18681   0.18079  -0.0815   0.2326   1.0000
  15.600   0.7434   0.18686   0.18083  -0.0826   0.2310   1.0000
  15.700   0.7406   0.18745   0.18142  -0.0833   0.2264   1.0000
  16.000   0.7472   0.19212   0.18614  -0.0844   0.2165   1.0000
  16.250   0.7557   0.19598   0.19005  -0.0849   0.2069   1.0000
  16.500   0.7567   0.19970   0.19378  -0.0864   0.2038   1.0000
  16.750   0.7550   0.20202   0.19613  -0.0881   0.1957   1.0000
  17.000   0.7666   0.20735   0.20149  -0.0885   0.1905   1.0000
  17.250   0.7602   0.20876   0.20291  -0.0908   0.1844   1.0000
  17.500   0.7824   0.21647   0.21068  -0.0901   0.1774   1.0000
  17.750   0.7693   0.21639   0.21059  -0.0932   0.1747   1.0000
  18.000   0.7712   0.21940   0.21364  -0.0947   0.1688   1.0000
  18.500   0.7817   0.22762   0.22194  -0.0971   0.1620   1.0000
  18.750   0.7811   0.23011   0.22445  -0.0990   0.1563   1.0000
  19.000   0.8031   0.23849   0.23289  -0.0981   0.1500   1.0000
  19.250   0.7912   0.23813   0.23252  -0.1013   0.1480   1.0000
  19.500   0.7920   0.24096   0.23539  -0.1032   0.1431   1.0000
  19.750   0.8003   0.24536   0.23984  -0.1038   0.1385   1.0000
  20.000   0.8110   0.25177   0.24628  -0.1044   0.1363   1.0000
   0.000   0.1301   0.02641   0.01718  -0.0601   0.9649   1.0000
   0.250   0.1682   0.02743   0.01786  -0.0632   0.9545   1.0000
   0.150   0.1566   0.02711   0.01765  -0.0626   0.9590   1.0000
   0.050   0.1379   0.02661   0.01731  -0.0607   0.9629   1.0000
  -0.250   0.0928   0.02545   0.01662  -0.0571   0.9753   1.0000
  -0.500   0.0539   0.02450   0.01620  -0.0539   0.9854   1.0000
  -0.750   0.0095   0.02344   0.01596  -0.0498   0.9953   1.0000
  -1.000  -0.0229   0.02683   0.01690  -0.0508   1.0000   0.2848
  -1.250  -0.0507   0.02803   0.01773  -0.0506   1.0000   0.1959
  -1.500  -0.0751   0.02897   0.01877  -0.0511   1.0000   0.1567
  -1.750  -0.0978   0.03012   0.01988  -0.0514   1.0000   0.1367
  -2.000  -0.1238   0.03134   0.02161  -0.0516   1.0000   0.1287
  -2.250  -0.1471   0.03285   0.02325  -0.0517   1.0000   0.1214
  -2.500  -0.1746   0.03470   0.02573  -0.0514   1.0000   0.1177
  -2.750  -0.2019   0.03716   0.02870  -0.0507   1.0000   0.1197
  -3.250  -0.3100   0.05114   0.04523  -0.0346   1.0000   0.2354
  -4.250  -0.4158   0.07103   0.06615   0.0015   1.0000   0.3640
  -4.500  -0.4124   0.07321   0.06827  -0.0007   1.0000   0.3413
  -4.750  -0.4086   0.07514   0.07013  -0.0027   1.0000   0.3227
  -5.000  -0.4039   0.07717   0.07210  -0.0048   1.0000   0.3073
  -5.250  -0.3975   0.07917   0.07402  -0.0068   1.0000   0.2947
  -5.000  -0.4039   0.07717   0.07210  -0.0048   1.0000   0.3074
  -5.100  -0.4081   0.07849   0.07339  -0.0073   1.0000   0.3024
  -5.200  -0.4025   0.07922   0.07408  -0.0072   1.0000   0.2981
  -5.500  -0.3986   0.08190   0.07667  -0.0105   1.0000   0.2844
  -5.750  -0.3926   0.08366   0.07835  -0.0131   1.0000   0.2720
  -5.500  -0.3986   0.08190   0.07667  -0.0105   1.0000   0.2844
  -5.600  -0.3855   0.08164   0.07635  -0.0099   1.0000   0.2792
  -5.700  -0.3854   0.08245   0.07714  -0.0113   1.0000   0.2745
  -6.000  -0.3687   0.08420   0.07874  -0.0139   1.0000   0.2648
  -6.250  -0.3790   0.08785   0.08236  -0.0182   1.0000   0.2552
  -6.500  -0.3460   0.08714   0.08143  -0.0190   1.0000   0.2495
  -6.750  -0.3572   0.09098   0.08524  -0.0222   1.0000   0.2400
  -7.000  -0.3281   0.09045   0.08446  -0.0235   1.0000   0.2348
  -7.250  -0.3449   0.09491   0.08889  -0.0253   1.0000   0.2250
  -7.500  -0.3223   0.09477   0.08853  -0.0256   1.0000   0.2186
  -7.750  -0.3417   0.09968   0.09342  -0.0270   1.0000   0.2102
  -8.000  -0.3251   0.09992   0.09349  -0.0258   1.0000   0.2031
  -8.250  -0.3450   0.10522   0.09877  -0.0271   1.0000   0.1954
  -8.500  -0.3314   0.10549   0.09889  -0.0250   1.0000   0.1894
  -8.750  -0.3583   0.11199   0.10542  -0.0270   1.0000   0.1810
  -9.000  -0.3413   0.11163   0.10489  -0.0241   1.0000   0.1773
  -9.250  -0.3504   0.11488   0.10811  -0.0239   1.0000   0.1691
  -9.500  -0.3553   0.11846   0.11161  -0.0232   1.0000   0.1645
  -9.750  -0.3539   0.12019   0.11327  -0.0215   1.0000   0.1585
 -10.000  -0.3776   0.12692   0.12004  -0.0231   1.0000   0.1513
 -10.250  -0.3681   0.12706   0.12007  -0.0202   1.0000   0.1491
 -10.500  -0.3704   0.12936   0.12232  -0.0188   1.0000   0.1426
 -10.750  -0.3981   0.13744   0.13044  -0.0206   1.0000   0.1368
 -11.000  -0.3861   0.13689   0.12977  -0.0173   1.0000   0.1351
 -11.250  -0.3864   0.13868   0.13151  -0.0154   1.0000   0.1308
 -11.500  -0.3956   0.14225   0.13506  -0.0147   1.0000   0.1259
 -11.750  -0.4211   0.15077   0.14360  -0.0159   1.0000   0.1223
 -12.000  -0.4119   0.15018   0.14292  -0.0128   1.0000   0.1211
 -12.250  -0.4113   0.15153   0.14422  -0.0106   1.0000   0.1178
 -12.500  -0.4177   0.15441   0.14708  -0.0093   1.0000   0.1141
 -12.750  -0.4302   0.15895   0.15162  -0.0090   1.0000   0.1101
 -13.000  -0.4498   0.16690   0.15959  -0.0091   1.0000   0.1077
 -13.250  -0.4445   0.16644   0.15906  -0.0063   1.0000   0.1068
 -13.500  -0.4455   0.16758   0.16017  -0.0040   1.0000   0.1044
 -13.750  -0.4515   0.17026   0.16282  -0.0024   1.0000   0.1011
 -14.000  -0.4604   0.17373   0.16629  -0.0012   1.0000   0.0978
 -14.250  -0.4758   0.17963   0.17220  -0.0011   1.0000   0.0949
 -14.500  -0.4913   0.18698   0.17953  -0.0005   1.0000   0.0935
 -14.750  -0.4887   0.18623   0.17873   0.0023   1.0000   0.0928
 -15.000  -0.4911   0.18699   0.17945   0.0048   1.0000   0.0912
 -15.250  -0.4972   0.18928   0.18172   0.0068   1.0000   0.0884
 -15.500  -0.5053   0.19228   0.18471   0.0085   1.0000   0.0858
 -15.750  -0.5149   0.19584   0.18826   0.0097   1.0000   0.0831
 -16.000  -0.5452   0.21088   0.20338   0.0081   1.0000   0.0797
 -16.250  -0.5424   0.20898   0.20142   0.0110   1.0000   0.0794
 -16.500  -0.5426   0.20778   0.20018   0.0140   1.0000   0.0787
 -16.750  -0.5477   0.20877   0.20115   0.0166   1.0000   0.0774
 -17.000  -0.5549   0.21101   0.20337   0.0187   1.0000   0.0750
 -17.250  -0.5634   0.21388   0.20623   0.0206   1.0000   0.0730
 -17.500  -0.5723   0.21706   0.20940   0.0223   1.0000   0.0709
 -17.750  -0.5820   0.22061   0.21295   0.0238   1.0000   0.0692
 -18.000  -0.5939   0.22580   0.21816   0.0247   1.0000   0.0674
 -18.250  -0.6151   0.23931   0.23169   0.0244   1.0000   0.0661
 -18.500  -0.6168   0.23777   0.23011   0.0273   1.0000   0.0659
 -18.750  -0.6208   0.23713   0.22947   0.0302   1.0000   0.0655
 -19.000  -0.6263   0.23734   0.22965   0.0331   1.0000   0.0647
 -19.250  -0.6338   0.23899   0.23130   0.0356   1.0000   0.0634
 -19.500  -0.6420   0.24143   0.23372   0.0377   1.0000   0.0619
 -19.750  -0.6509   0.24424   0.23653   0.0398   1.0000   0.0604
 -20.000  -0.6599   0.24722   0.23951   0.0418   1.0000   0.0589
