  
       XFOIL         Version 6.99
  
 Calculated polar for: FX 78-K-150/20                                  
  
 1 1 Reynolds number fixed          Mach number fixed         
  
 xtrf =   1.000 (top)        1.000 (bottom)  
 Mach =   0.000     Re =     0.050 e 6     Ncrit =   9.000
  
   alpha    CL        CD       CDp       CM     Top_Xtr  Bot_Xtr
  ------ -------- --------- --------- -------- -------- --------
   0.000  -0.2196   0.04088   0.03180  -0.0152   1.0000   1.0000
   0.250  -0.2049   0.04135   0.03197  -0.0142   1.0000   1.0000
   0.500  -0.1898   0.04187   0.03219  -0.0133   1.0000   1.0000
   0.750  -0.1743   0.04245   0.03251  -0.0124   1.0000   1.0000
   1.000  -0.1586   0.04307   0.03290  -0.0117   1.0000   1.0000
   1.250  -0.1426   0.04375   0.03334  -0.0111   1.0000   1.0000
   1.500  -0.1263   0.04447   0.03386  -0.0106   1.0000   1.0000
   1.750  -0.1100   0.04524   0.03444  -0.0101   1.0000   1.0000
   2.000  -0.0935   0.04605   0.03508  -0.0097   1.0000   1.0000
   2.250  -0.0769   0.04690   0.03578  -0.0093   1.0000   1.0000
   2.500  -0.0601   0.04781   0.03655  -0.0091   0.9999   1.0000
   2.750  -0.0257   0.04999   0.03855  -0.0125   0.9917   1.0000
   2.750  -0.0257   0.04999   0.03855  -0.0125   0.9917   1.0000
   2.850  -0.0109   0.05110   0.03958  -0.0139   0.9887   1.0000
   2.950  -0.0001   0.05162   0.04006  -0.0147   0.9841   1.0000
   3.250   0.0363   0.05391   0.04218  -0.0178   0.9708   1.0000
   3.500   0.0644   0.05575   0.04393  -0.0199   0.9596   1.0000
   3.750   0.0990   0.05853   0.04661  -0.0230   0.9513   1.0000
   4.000   0.1221   0.05970   0.04772  -0.0241   0.9383   1.0000
   4.250   0.1433   0.06094   0.04891  -0.0248   0.9259   1.0000
   4.500   0.1647   0.06242   0.05035  -0.0255   0.9149   1.0000
   4.750   0.1999   0.06556   0.05345  -0.0287   0.9068   1.0000
   5.000   0.2157   0.06620   0.05409  -0.0284   0.8939   1.0000
   5.250   0.2317   0.06730   0.05518  -0.0282   0.8825   1.0000
   5.500   0.2565   0.06953   0.05741  -0.0295   0.8747   1.0000
   5.750   0.2788   0.07119   0.05908  -0.0304   0.8637   1.0000
   6.000   0.2919   0.07226   0.06019  -0.0299   0.8528   1.0000
   6.250   0.3250   0.07559   0.06355  -0.0326   0.8468   1.0000
   6.500   0.3345   0.07610   0.06410  -0.0315   0.8351   1.0000
   6.750   0.3463   0.07736   0.06542  -0.0310   0.8262   1.0000
   7.000   0.3767   0.08043   0.06855  -0.0333   0.8193   1.0000
   7.250   0.3832   0.08107   0.06927  -0.0320   0.8088   1.0000
   7.500   0.4008   0.08321   0.07148  -0.0325   0.8026   1.0000
   7.750   0.4200   0.08514   0.07350  -0.0332   0.7933   1.0000
   8.000   0.4284   0.08647   0.07494  -0.0325   0.7853   1.0000
   8.250   0.4563   0.08956   0.07815  -0.0345   0.7781   1.0000
   8.500   0.4587   0.09034   0.07901  -0.0330   0.7695   1.0000
   8.750   0.4894   0.09400   0.08282  -0.0355   0.7635   1.0000
   9.000   0.4886   0.09442   0.08334  -0.0337   0.7539   1.0000
   9.250   0.5156   0.09808   0.08715  -0.0358   0.7482   1.0000
   9.500   0.5185   0.09880   0.08802  -0.0347   0.7380   1.0000
   9.750   0.5332   0.10136   0.09073  -0.0353   0.7316   1.0000
  10.000   0.5506   0.10368   0.09321  -0.0360   0.7216   1.0000
  10.250   0.5549   0.10533   0.09500  -0.0355   0.7135   1.0000
  10.250   0.5549   0.10533   0.09500  -0.0355   0.7135   1.0000
  10.350   0.5628   0.10632   0.09607  -0.0359   0.7094   1.0000
  10.450   0.5768   0.10814   0.09800  -0.0371   0.7064   1.0000
  10.750   0.5839   0.11018   0.10022  -0.0367   0.6946   1.0000
  11.000   0.5932   0.11250   0.10274  -0.0369   0.6854   1.0000
  11.250   0.6139   0.11584   0.10632  -0.0383   0.6753   1.0000
  11.500   0.6370   0.11921   0.10994  -0.0398   0.6626   1.0000
  11.750   0.6478   0.12143   0.11239  -0.0400   0.6489   1.0000
  12.000   0.6563   0.12357   0.11478  -0.0401   0.6341   1.0000
  12.250   0.9036   0.07146   0.06058  -0.0064   0.1042   1.0000
  12.500   1.0121   0.06581   0.05489  -0.0033   0.0886   1.0000
  12.750   1.1594   0.06717   0.05661  -0.0067   0.0797   1.0000
  13.000   1.2027   0.07159   0.06150  -0.0071   0.0803   1.0000
  13.250   1.2419   0.07723   0.06753  -0.0079   0.0818   1.0000
  13.500   1.2495   0.08173   0.07240  -0.0067   0.0824   1.0000
  13.750   1.2241   0.08382   0.07488  -0.0033   0.0832   1.0000
  14.000   1.1813   0.08660   0.07813   0.0000   0.0851   1.0000
  14.250   1.1530   0.09080   0.08269   0.0017   0.0869   1.0000
  14.500   1.1272   0.09568   0.08787   0.0027   0.0881   1.0000
  14.750   1.1028   0.10068   0.09313   0.0029   0.0895   1.0000
  15.000   1.0760   0.10639   0.09902   0.0026   0.0910   1.0000
  15.250   1.0533   0.11219   0.10498   0.0016   0.0922   1.0000
  15.500   1.0368   0.11856   0.11147   0.0003   0.0937   1.0000
  15.750   1.0236   0.12511   0.11815  -0.0013   0.0957   1.0000
  16.000   0.9453   0.13794   0.13116  -0.0101   0.0976   1.0000
  16.250   0.8895   0.15549   0.14863  -0.0218   0.1039   1.0000
  16.500   0.9059   0.15914   0.15235  -0.0214   0.1089   1.0000
  16.500   0.6465   0.14727   0.14106  -0.0167   0.1234   1.0000
  16.600   0.6573   0.14777   0.14160  -0.0158   0.1221   1.0000
  17.000   0.5850   0.17031   0.16400  -0.0325   0.2460   1.0000
  17.250   0.5820   0.17299   0.16669  -0.0342   0.2441   1.0000
  17.500   0.5825   0.17583   0.16955  -0.0356   0.2403   1.0000
  17.750   0.5901   0.17938   0.17316  -0.0366   0.2361   1.0000
  18.000   0.6017   0.18423   0.17803  -0.0373   0.2327   1.0000
  18.250   0.5931   0.18515   0.17895  -0.0393   0.2258   1.0000
  18.500   0.6165   0.19166   0.18550  -0.0392   0.2191   1.0000
  18.750   0.6013   0.19134   0.18516  -0.0417   0.2138   1.0000
  19.000   0.6124   0.19518   0.18905  -0.0423   0.2067   1.0000
  19.250   0.6152   0.19862   0.19249  -0.0437   0.2035   1.0000
  19.500   0.6137   0.20053   0.19441  -0.0454   0.1963   1.0000
  19.750   0.6323   0.20650   0.20044  -0.0455   0.1913   1.0000
  20.000   0.6223   0.20711   0.20102  -0.0480   0.1872   1.0000
   0.000  -0.2196   0.04088   0.03180  -0.0152   1.0000   1.0000
  -0.250  -0.2338   0.04047   0.03175  -0.0163   1.0000   1.0000
  -0.500  -0.2478   0.04013   0.03182  -0.0177   1.0000   1.0000
  -0.750  -0.2620   0.03981   0.03206  -0.0191   1.0000   1.0000
  -1.000  -0.3645   0.04075   0.02972  -0.0086   1.0000   0.2344
  -1.250  -0.3910   0.04114   0.03007  -0.0086   1.0000   0.2095
  -1.500  -0.4151   0.04166   0.03070  -0.0090   1.0000   0.1898
  -1.750  -0.4373   0.04252   0.03171  -0.0097   1.0000   0.1782
  -2.000  -0.4577   0.04355   0.03283  -0.0105   1.0000   0.1656
  -2.250  -0.4796   0.04475   0.03454  -0.0116   1.0000   0.1583
  -2.500  -0.4985   0.04626   0.03613  -0.0125   1.0000   0.1505
  -2.750  -0.5192   0.04801   0.03853  -0.0138   1.0000   0.1459
  -3.000  -0.5390   0.05017   0.04122  -0.0149   1.0000   0.1441
  -3.250  -0.5572   0.05242   0.04389  -0.0161   1.0000   0.1404
  -3.500  -0.5760   0.05566   0.04780  -0.0170   1.0000   0.1431
  -3.750  -0.5931   0.05935   0.05187  -0.0178   1.0000   0.1495
  -4.000  -0.6176   0.06580   0.05942  -0.0166   1.0000   0.1853
