  
       XFOIL         Version 6.99
  
 Calculated polar for: NN7 MK20                                        
  
 1 1 Reynolds number fixed          Mach number fixed         
  
 xtrf =   1.000 (top)        1.000 (bottom)  
 Mach =   0.000     Re =     0.050 e 6     Ncrit =   9.000
  
   alpha    CL        CD       CDp       CM     Top_Xtr  Bot_Xtr
  ------ -------- --------- --------- -------- -------- --------
   0.000  -0.2691   0.04494   0.03637   0.0163   1.0000   0.9643
   0.250  -0.2342   0.04569   0.03695   0.0118   1.0000   0.9717
   0.500  -0.2012   0.04647   0.03758   0.0076   1.0000   0.9793
   0.750  -0.1690   0.04726   0.03824   0.0035   1.0000   0.9867
   1.000  -0.1402   0.04810   0.03897  -0.0001   1.0000   0.9950
   1.250  -0.1247   0.04857   0.03935  -0.0011   1.0000   1.0000
   1.500  -0.1247   0.04827   0.03900   0.0009   1.0000   1.0000
   1.750  -0.1247   0.04794   0.03862   0.0028   1.0000   1.0000
   2.000  -0.1243   0.04760   0.03825   0.0047   1.0000   1.0000
   2.250  -0.1209   0.04740   0.03801   0.0061   0.9994   1.0000
   2.500  -0.0953   0.04868   0.03919   0.0031   0.9899   1.0000
   2.750  -0.0698   0.05010   0.04053   0.0002   0.9796   1.0000
   3.000  -0.0391   0.05210   0.04243  -0.0035   0.9690   1.0000
   3.250  -0.0126   0.05336   0.04362  -0.0063   0.9567   1.0000
   3.250  -0.0126   0.05336   0.04362  -0.0063   0.9567   1.0000
   3.350  -0.0037   0.05392   0.04415  -0.0071   0.9537   1.0000
   3.450   0.0039   0.05404   0.04426  -0.0076   0.9470   1.0000
   3.750   0.0363   0.05598   0.04613  -0.0110   0.9340   1.0000
   4.000   0.0744   0.05890   0.04897  -0.0158   0.9250   1.0000
   4.250   0.0973   0.05992   0.04997  -0.0178   0.9118   1.0000
   4.500   0.1186   0.06116   0.05119  -0.0195   0.8998   1.0000
   4.750   0.1442   0.06301   0.05303  -0.0220   0.8897   1.0000
   5.000   0.1834   0.06614   0.05612  -0.0267   0.8794   1.0000
   5.250   0.2015   0.06711   0.05710  -0.0278   0.8661   1.0000
   5.500   0.2215   0.06859   0.05859  -0.0293   0.8539   1.0000
   5.750   0.2455   0.07062   0.06064  -0.0315   0.8431   1.0000
   6.000   0.2825   0.07385   0.06387  -0.0356   0.8324   1.0000
   6.250   0.3038   0.07544   0.06550  -0.0372   0.8187   1.0000
   6.500   0.3203   0.07692   0.06702  -0.0382   0.8055   1.0000
   6.750   0.3390   0.07884   0.06899  -0.0396   0.7929   1.0000
   7.000   0.3612   0.08114   0.07133  -0.0415   0.7809   1.0000
   7.250   0.3927   0.08426   0.07451  -0.0447   0.7695   1.0000
   7.500   0.4237   0.08723   0.07756  -0.0475   0.7551   1.0000
   7.750   0.4365   0.08875   0.07914  -0.0481   0.7408   1.0000
   7.750   0.4365   0.08875   0.07914  -0.0481   0.7408   1.0000
   7.850   0.4368   0.08940   0.07981  -0.0479   0.7371   1.0000
   7.950   0.4414   0.08987   0.08031  -0.0480   0.7294   1.0000
   8.250   0.4661   0.09287   0.08340  -0.0500   0.7130   1.0000
   8.500   0.4831   0.09525   0.08585  -0.0513   0.6989   1.0000
   8.750   0.4999   0.09775   0.08846  -0.0526   0.6851   1.0000
   9.000   0.5173   0.10033   0.09112  -0.0539   0.6711   1.0000
   9.250   0.5348   0.10303   0.09391  -0.0552   0.6574   1.0000
   9.500   0.5525   0.10576   0.09675  -0.0566   0.6432   1.0000
   9.750   0.6442   0.10240   0.09352  -0.0563   0.5585   1.0000
  10.000   0.6281   0.10696   0.09815  -0.0573   0.5622   1.0000
  10.250   0.6325   0.11085   0.10214  -0.0588   0.5613   1.0000
  10.500   0.6420   0.11475   0.10617  -0.0605   0.5594   1.0000
  10.750   0.6340   0.11887   0.11037  -0.0618   0.5628   1.0000
  11.000   0.7534   0.10969   0.10144  -0.0577   0.4652   1.0000
  11.250   0.7647   0.11177   0.10363  -0.0578   0.4485   1.0000
  11.500   0.7783   0.11369   0.10567  -0.0579   0.4313   1.0000
  11.750   0.7985   0.11488   0.10700  -0.0577   0.4129   1.0000
  11.750   0.7985   0.11488   0.10701  -0.0577   0.4129   1.0000
  11.850   0.8203   0.11382   0.10605  -0.0570   0.4042   1.0000
  11.950   0.8166   0.11541   0.10768  -0.0573   0.3974   1.0000
  12.250   0.8551   0.11460   0.10708  -0.0559   0.3741   1.0000
  12.500   0.8614   0.11696   0.10955  -0.0558   0.3563   1.0000
  12.750   0.8761   0.11833   0.11106  -0.0554   0.3386   1.0000
  13.000   0.9572   0.10842   0.10154  -0.0499   0.3166   1.0000
  13.250   0.9490   0.11322   0.10639  -0.0506   0.3004   1.0000
  13.250   1.2901   0.06060   0.05362  -0.0336   0.2405   1.0000
  13.350   1.2831   0.06233   0.05544  -0.0331   0.2358   1.0000
  13.450   1.0716   0.09210   0.08576  -0.0406   0.2781   1.0000
  13.750   1.3042   0.06599   0.05905  -0.0315   0.2084   1.0000
  14.000   1.3136   0.06877   0.06186  -0.0307   0.1950   1.0000
  14.250   1.0711   0.10363   0.09749  -0.0407   0.2342   1.0000
  14.500   1.0214   0.11806   0.11184  -0.0462   0.2299   1.0000
  14.750   0.9644   0.13583   0.12944  -0.0543   0.2281   1.0000
  15.000   0.9257   0.14917   0.14263  -0.0609   0.2271   1.0000
  15.250   0.9048   0.15855   0.15196  -0.0657   0.2257   1.0000
  15.500   0.8960   0.16596   0.15936  -0.0693   0.2257   1.0000
  15.750   0.8954   0.17244   0.16587  -0.0722   0.2270   1.0000
  16.000   0.8984   0.17848   0.17195  -0.0748   0.2279   1.0000
  16.000   0.8978   0.17873   0.17222  -0.0750   0.2293   1.0000
  16.100   0.9003   0.18093   0.17444  -0.0758   0.2290   1.0000
  16.200   0.9042   0.18316   0.17669  -0.0765   0.2286   1.0000
  16.750   0.6439   0.18664   0.18116  -0.0743   0.3006   1.0000
  17.000   0.6497   0.18919   0.18377  -0.0755   0.2899   1.0000
  17.250   0.6525   0.19255   0.18719  -0.0772   0.2853   1.0000
  17.500   0.6572   0.19525   0.18996  -0.0787   0.2760   1.0000
  17.750   0.6606   0.19856   0.19331  -0.0802   0.2694   1.0000
  18.000   0.6732   0.20254   0.19737  -0.0812   0.2595   1.0000
  18.250   0.6697   0.20498   0.19985  -0.0832   0.2540   1.0000
  18.500   0.6914   0.21141   0.20636  -0.0836   0.2431   1.0000
  18.750   0.6783   0.21143   0.20639  -0.0862   0.2363   1.0000
  19.000   0.6928   0.21677   0.21179  -0.0869   0.2277   1.0000
  19.250   0.6899   0.21853   0.21358  -0.0889   0.2181   1.0000
  19.500   0.6952   0.22264   0.21774  -0.0903   0.2113   1.0000
  19.750   0.7175   0.22992   0.22508  -0.0903   0.1994   1.0000
  20.000   0.7016   0.22946   0.22461  -0.0935   0.1947   1.0000
   0.000  -0.2691   0.04494   0.03637   0.0163   1.0000   0.9643
  -0.250  -0.3086   0.04414   0.03577   0.0214   1.0000   0.9563
  -0.500  -0.3471   0.04345   0.03530   0.0264   1.0000   0.9479
  -0.750  -0.4001   0.04240   0.03455   0.0337   1.0000   0.9384
  -1.000  -0.4417   0.04175   0.03419   0.0384   1.0000   0.9247
  -1.250  -0.4851   0.04103   0.03376   0.0421   1.0000   0.9018
  -1.500  -0.5084   0.04098   0.03393   0.0406   1.0000   0.8706
  -1.750  -0.5123   0.04149   0.03460   0.0350   1.0000   0.8375
  -2.000  -0.5078   0.04204   0.03521   0.0269   1.0000   0.8027
  -2.250  -0.5030   0.04219   0.03544   0.0190   1.0000   0.7652
  -2.500  -0.4979   0.04183   0.03514   0.0102   1.0000   0.7307
  -2.750  -0.4967   0.04096   0.03437   0.0025   1.0000   0.6992
  -3.000  -0.4984   0.03940   0.03299  -0.0047   1.0000   0.6624
  -3.250  -0.4958   0.03653   0.03029  -0.0146   1.0000   0.6119
  -3.500  -0.4822   0.03309   0.02499  -0.0292   1.0000   0.2928
  -3.750  -0.5011   0.03558   0.02631  -0.0289   1.0000   0.1986
  -4.000  -0.5175   0.03658   0.02707  -0.0304   1.0000   0.1734
  -4.250  -0.5337   0.03739   0.02776  -0.0325   1.0000   0.1578
  -4.500  -0.5507   0.03828   0.02853  -0.0346   1.0000   0.1454
  -4.750  -0.5693   0.03929   0.02953  -0.0364   1.0000   0.1373
  -5.000  -0.5888   0.04067   0.03105  -0.0377   1.0000   0.1295
  -5.250  -0.6086   0.04217   0.03275  -0.0387   1.0000   0.1242
  -5.500  -0.6272   0.04435   0.03490  -0.0396   1.0000   0.1199
  -5.750  -0.6470   0.04635   0.03746  -0.0400   1.0000   0.1163
  -6.000  -0.6654   0.04879   0.04038  -0.0404   1.0000   0.1148
  -6.250  -0.6822   0.05181   0.04385  -0.0408   1.0000   0.1152
  -6.500  -0.6963   0.05508   0.04757  -0.0409   1.0000   0.1158
  -6.750  -0.7065   0.05869   0.05163  -0.0410   1.0000   0.1160
  -7.000  -0.7130   0.06248   0.05580  -0.0411   1.0000   0.1167
  -7.250  -0.7188   0.06635   0.05988  -0.0416   1.0000   0.1184
  -7.500  -0.6970   0.07241   0.06678  -0.0402   1.0000   0.1272
  -7.750  -0.6867   0.07682   0.07134  -0.0406   1.0000   0.1313
  -8.000  -0.5396   0.08202   0.07727  -0.0366   1.0000   0.1442
  -8.250  -0.5396   0.08578   0.08100  -0.0381   1.0000   0.1484
  -8.500  -0.4631   0.09629   0.09145  -0.0333   1.0000   0.1624
  -8.750  -0.3271   0.12101   0.11600  -0.0135   1.0000   0.3379
  -9.000  -0.3239   0.12346   0.11841  -0.0146   1.0000   0.3355
  -9.250  -0.3378   0.12719   0.12215  -0.0157   1.0000   0.3321
  -9.500  -0.3063   0.12728   0.12214  -0.0172   1.0000   0.3239
  -9.750  -0.3259   0.13097   0.12583  -0.0188   1.0000   0.3168
 -10.000  -0.2954   0.13082   0.12559  -0.0201   1.0000   0.3090
 -10.250  -0.3143   0.13440   0.12916  -0.0220   1.0000   0.3014
 -10.500  -0.2845   0.13396   0.12862  -0.0233   1.0000   0.2934
 -10.750  -0.2981   0.13696   0.13162  -0.0254   1.0000   0.2869
 -11.000  -0.2727   0.13683   0.13139  -0.0266   1.0000   0.2808
 -11.250  -0.2734   0.13840   0.13292  -0.0287   1.0000   0.2733
 -11.500  -0.2666   0.13994   0.13439  -0.0305   1.0000   0.2691
 -11.750  -0.2519   0.13989   0.13426  -0.0324   1.0000   0.2609
 -12.000  -0.2639   0.14302   0.13733  -0.0356   1.0000   0.2551
 -12.250  -0.2340   0.14112   0.13533  -0.0370   1.0000   0.2496
 -12.500  -0.2330   0.14206   0.13619  -0.0401   1.0000   0.2421
 -12.750  -0.2242   0.14292   0.13695  -0.0424   1.0000   0.2381
 -13.000  -0.2121   0.14254   0.13648  -0.0439   1.0000   0.2302
 -13.250  -0.2242   0.14634   0.14021  -0.0458   1.0000   0.2239
 -13.500  -0.2066   0.14499   0.13877  -0.0457   1.0000   0.2174
 -13.750  -0.2249   0.14962   0.14337  -0.0471   1.0000   0.2099
 -14.000  -0.2098   0.14877   0.14245  -0.0465   1.0000   0.2063
 -14.250  -0.2084   0.14955   0.14319  -0.0465   1.0000   0.1990
 -14.500  -0.2297   0.15590   0.14948  -0.0472   1.0000   0.1939
 -14.750  -0.2097   0.15265   0.14621  -0.0460   1.0000   0.1895
 -15.000  -0.2151   0.15464   0.14818  -0.0459   1.0000   0.1825
 -15.250  -0.2272   0.15910   0.15260  -0.0459   1.0000   0.1784
 -15.500  -0.2162   0.15755   0.15102  -0.0446   1.0000   0.1732
 -15.750  -0.2286   0.16108   0.15454  -0.0447   1.0000   0.1660
 -16.000  -0.2320   0.16353   0.15694  -0.0439   1.0000   0.1631
 -16.250  -0.2266   0.16307   0.15647  -0.0425   1.0000   0.1576
 -16.500  -0.2373   0.16629   0.15968  -0.0422   1.0000   0.1516
 -16.750  -0.2497   0.17127   0.16464  -0.0418   1.0000   0.1489
 -17.000  -0.2405   0.16955   0.16290  -0.0399   1.0000   0.1458
 -17.250  -0.2436   0.17110   0.16444  -0.0388   1.0000   0.1409
 -17.500  -0.2551   0.17476   0.16810  -0.0384   1.0000   0.1364
 -17.750  -0.2689   0.18052   0.17383  -0.0378   1.0000   0.1341
 -18.000  -0.2606   0.17854   0.17184  -0.0357   1.0000   0.1321
 -18.250  -0.2622   0.17965   0.17294  -0.0342   1.0000   0.1279
 -18.500  -0.2689   0.18206   0.17535  -0.0332   1.0000   0.1239
 -18.750  -0.2870   0.18857   0.18186  -0.0331   1.0000   0.1201
 -19.000  -0.2893   0.19057   0.18383  -0.0316   1.0000   0.1189
 -19.250  -0.2848   0.18936   0.18261  -0.0295   1.0000   0.1167
 -19.500  -0.2879   0.19084   0.18411  -0.0279   1.0000   0.1127
 -19.750  -0.2949   0.19338   0.18665  -0.0268   1.0000   0.1088
 -20.000  -0.3109   0.19951   0.19280  -0.0265   1.0000   0.1054
