  
       XFOIL         Version 6.99
  
 Calculated polar for: FX 79-L-120                                     
  
 1 1 Reynolds number fixed          Mach number fixed         
  
 xtrf =   1.000 (top)        1.000 (bottom)  
 Mach =   0.000     Re =     0.050 e 6     Ncrit =   9.000
  
   alpha    CL        CD       CDp       CM     Top_Xtr  Bot_Xtr
  ------ -------- --------- --------- -------- -------- --------
   0.000  -0.0000   0.02602   0.01669  -0.0000   1.0000   1.0000
   0.250  -0.0138   0.02596   0.01663   0.0034   1.0000   1.0000
   0.500   0.0329   0.02609   0.01676  -0.0033   0.9863   1.0000
   0.750   0.0730   0.02621   0.01690  -0.0086   0.9719   1.0000
   1.000   0.1095   0.02639   0.01711  -0.0130   0.9578   1.0000
   1.250   0.1419   0.02661   0.01737  -0.0166   0.9440   1.0000
   1.500   0.1726   0.02688   0.01768  -0.0195   0.9299   1.0000
   1.750   0.2021   0.02719   0.01804  -0.0220   0.9157   1.0000
   2.000   0.2324   0.02756   0.01847  -0.0244   0.9015   1.0000
   2.250   0.2654   0.02796   0.01895  -0.0268   0.8866   1.0000
   2.500   0.3000   0.02840   0.01947  -0.0291   0.8707   1.0000
   2.750   0.3324   0.02884   0.02002  -0.0307   0.8534   1.0000
   3.000   0.3619   0.02929   0.02055  -0.0315   0.8342   1.0000
   3.250   0.4037   0.02949   0.02091  -0.0333   0.8126   1.0000
   3.500   0.4531   0.02928   0.02091  -0.0350   0.7878   1.0000
   3.750   0.4973   0.02867   0.02048  -0.0347   0.7594   1.0000
   4.000   0.5175   0.02851   0.02042  -0.0314   0.7310   1.0000
   4.250   0.5428   0.02792   0.01992  -0.0279   0.7010   1.0000
   4.500   0.5668   0.02711   0.01919  -0.0238   0.6690   1.0000
   4.750   0.5892   0.02609   0.01824  -0.0192   0.6334   1.0000
   5.000   0.6107   0.02484   0.01699  -0.0143   0.5917   1.0000
   5.250   0.6276   0.02352   0.01559  -0.0088   0.5331   1.0000
   5.500   0.6377   0.02263   0.01421  -0.0025   0.4362   1.0000
   5.750   0.6446   0.02363   0.01424   0.0023   0.3360   1.0000
   6.000   0.6587   0.02533   0.01530   0.0050   0.2807   1.0000
   6.250   0.6785   0.02707   0.01672   0.0066   0.2460   1.0000
   6.500   0.7002   0.02877   0.01829   0.0079   0.2211   1.0000
   6.750   0.7246   0.03066   0.02003   0.0088   0.2031   1.0000
   7.000   0.7470   0.03255   0.02198   0.0098   0.1884   1.0000
   7.250   0.7678   0.03472   0.02440   0.0110   0.1779   1.0000
   7.500   0.7884   0.03701   0.02675   0.0120   0.1683   1.0000
   7.750   0.8054   0.03948   0.02958   0.0135   0.1616   1.0000
   8.000   0.8250   0.04224   0.03237   0.0143   0.1549   1.0000
   8.250   0.8327   0.04519   0.03591   0.0164   0.1510   1.0000
   8.500   0.8396   0.04863   0.03978   0.0181   0.1488   1.0000
   8.750   0.8438   0.05220   0.04371   0.0197   0.1469   1.0000
   9.000   0.8463   0.05584   0.04763   0.0212   0.1448   1.0000
   9.250   0.8651   0.05952   0.05118   0.0216   0.1407   1.0000
   9.500   0.8196   0.06499   0.05743   0.0237   0.1457   1.0000
   9.750   0.7807   0.07108   0.06373   0.0240   0.1503   1.0000
  10.000   0.7593   0.07651   0.06919   0.0235   0.1534   1.0000
  10.250   0.7441   0.08244   0.07512   0.0218   0.1550   1.0000
  10.250   0.5428   0.11696   0.10920  -0.0183   0.3514   1.0000
  10.350   0.5438   0.11831   0.11056  -0.0186   0.3488   1.0000
  10.450   0.5524   0.12011   0.11238  -0.0186   0.3449   1.0000
  10.750   0.5505   0.12413   0.11636  -0.0193   0.3345   1.0000
  11.000   0.5798   0.12984   0.12216  -0.0191   0.3266   1.0000
  11.250   0.5600   0.13130   0.12351  -0.0203   0.3173   1.0000
  11.500   0.5846   0.13698   0.12925  -0.0202   0.3100   1.0000
  11.750   0.5786   0.13894   0.13117  -0.0208   0.2976   1.0000
  12.000   0.5754   0.14192   0.13413  -0.0218   0.2888   1.0000
  12.250   0.6122   0.14904   0.14133  -0.0210   0.2794   1.0000
  12.500   0.5859   0.14887   0.14105  -0.0230   0.2708   1.0000
  12.750   0.6113   0.15508   0.14732  -0.0227   0.2632   1.0000
  13.000   0.5981   0.15585   0.14803  -0.0244   0.2537   1.0000
  13.250   0.6124   0.16080   0.15298  -0.0246   0.2466   1.0000
  13.500   0.6129   0.16301   0.15518  -0.0257   0.2363   1.0000
  13.750   0.6247   0.16800   0.16017  -0.0263   0.2312   1.0000
  14.000   0.6206   0.16965   0.16179  -0.0280   0.2230   1.0000
  14.250   0.6450   0.17654   0.16874  -0.0276   0.2166   1.0000
  14.500   0.6317   0.17651   0.16864  -0.0303   0.2096   1.0000
  14.750   0.6648   0.18504   0.17725  -0.0290   0.2015   1.0000
  15.000   0.6459   0.18359   0.17570  -0.0324   0.1973   1.0000
  15.250   0.6559   0.18715   0.17928  -0.0332   0.1896   1.0000
  15.500   0.6746   0.19395   0.18610  -0.0333   0.1858   1.0000
  15.750   0.6645   0.19352   0.18561  -0.0365   0.1806   1.0000
  16.000   0.6760   0.19739   0.18950  -0.0372   0.1741   1.0000
  16.250   0.6922   0.20385   0.19598  -0.0375   0.1704   1.0000
  16.500   0.6852   0.20345   0.19552  -0.0408   0.1648   1.0000
  16.750   0.6985   0.20771   0.19981  -0.0412   0.1583   1.0000
  17.000   0.7152   0.21482   0.20694  -0.0415   0.1554   1.0000
  17.250   0.7082   0.21377   0.20584  -0.0452   0.1522   1.0000
  17.500   0.7146   0.21656   0.20863  -0.0469   0.1468   1.0000
  17.750   0.7308   0.22220   0.21431  -0.0470   0.1423   1.0000
  18.000   0.7421   0.22800   0.22011  -0.0481   0.1404   1.0000
  18.250   0.7372   0.22674   0.21878  -0.0520   0.1367   1.0000
  18.500   0.7450   0.22961   0.22167  -0.0536   0.1314   1.0000
  18.750   0.7632   0.23655   0.22867  -0.0532   0.1271   1.0000
  19.000   0.7709   0.24098   0.23308  -0.0550   0.1256   1.0000
  19.250   0.7687   0.23987   0.23191  -0.0589   0.1230   1.0000
  19.500   0.7751   0.24233   0.23437  -0.0611   0.1192   1.0000
  19.750   0.7847   0.24584   0.23790  -0.0625   0.1155   1.0000
  20.000   0.8011   0.25302   0.24513  -0.0623   0.1126   1.0000
   0.000  -0.0000   0.02602   0.01669  -0.0000   1.0000   1.0000
  -0.250   0.0139   0.02596   0.01662  -0.0034   1.0000   1.0000
  -0.500  -0.0325   0.02609   0.01675   0.0033   1.0000   0.9864
  -0.750  -0.0729   0.02622   0.01690   0.0086   1.0000   0.9719
  -1.000  -0.1090   0.02640   0.01712   0.0130   1.0000   0.9579
  -1.250  -0.1428   0.02662   0.01738   0.0167   1.0000   0.9438
  -1.500  -0.1721   0.02688   0.01768   0.0194   1.0000   0.9300
  -1.750  -0.2023   0.02720   0.01805   0.0220   1.0000   0.9156
  -2.000  -0.2325   0.02756   0.01848   0.0244   1.0000   0.9012
  -2.250  -0.2649   0.02796   0.01895   0.0267   1.0000   0.8863
  -2.500  -0.3001   0.02840   0.01947   0.0291   1.0000   0.8706
  -2.750  -0.3326   0.02885   0.02002   0.0307   1.0000   0.8535
  -3.000  -0.3616   0.02930   0.02056   0.0314   1.0000   0.8344
  -3.250  -0.4039   0.02949   0.02092   0.0333   1.0000   0.8126
  -3.500  -0.4528   0.02929   0.02091   0.0350   1.0000   0.7876
  -3.750  -0.4950   0.02877   0.02057   0.0345   1.0000   0.7599
  -4.000  -0.5174   0.02852   0.02041   0.0313   1.0000   0.7311
  -4.250  -0.5430   0.02790   0.01990   0.0278   1.0000   0.7008
  -4.500  -0.5670   0.02707   0.01914   0.0237   1.0000   0.6685
  -4.750  -0.5893   0.02609   0.01823   0.0192   1.0000   0.6334
  -5.000  -0.6107   0.02485   0.01699   0.0143   1.0000   0.5916
  -5.250  -0.6277   0.02351   0.01558   0.0088   1.0000   0.5329
  -5.500  -0.6376   0.02262   0.01418   0.0025   1.0000   0.4353
  -5.750  -0.6445   0.02364   0.01424  -0.0024   1.0000   0.3352
  -6.000  -0.6586   0.02533   0.01529  -0.0050   1.0000   0.2803
  -6.250  -0.6784   0.02709   0.01674  -0.0066   1.0000   0.2456
  -6.500  -0.7002   0.02879   0.01830  -0.0079   1.0000   0.2206
  -6.750  -0.7246   0.03066   0.02003  -0.0088   1.0000   0.2029
  -7.000  -0.7470   0.03255   0.02197  -0.0098   1.0000   0.1883
  -7.250  -0.7677   0.03472   0.02439  -0.0110   1.0000   0.1778
  -7.500  -0.7885   0.03702   0.02675  -0.0120   1.0000   0.1684
  -7.750  -0.8053   0.03953   0.02965  -0.0135   1.0000   0.1619
  -8.000  -0.8259   0.04232   0.03241  -0.0142   1.0000   0.1553
  -8.250  -0.8329   0.04523   0.03594  -0.0163   1.0000   0.1514
  -8.500  -0.8397   0.04864   0.03978  -0.0181   1.0000   0.1491
  -8.750  -0.8433   0.05225   0.04377  -0.0197   1.0000   0.1472
  -9.000  -0.8444   0.05595   0.04777  -0.0212   1.0000   0.1455
  -9.250  -0.8664   0.05948   0.05111  -0.0215   1.0000   0.1408
  -9.500  -0.8131   0.06539   0.05786  -0.0237   1.0000   0.1471
  -9.750  -0.7810   0.07105   0.06369  -0.0240   1.0000   0.1505
 -10.000  -0.7568   0.07649   0.06917  -0.0235   1.0000   0.1531
 -10.250  -0.7455   0.08222   0.07490  -0.0220   1.0000   0.1550
 -10.500  -0.6937   0.09541   0.08805  -0.0126   1.0000   0.1713
 -10.750  -0.5508   0.12435   0.11658   0.0193   1.0000   0.3371
 -11.000  -0.5771   0.12959   0.12190   0.0190   1.0000   0.3267
 -11.250  -0.5585   0.13119   0.12340   0.0202   1.0000   0.3181
 -11.500  -0.5836   0.13695   0.12922   0.0200   1.0000   0.3100
 -11.750  -0.5729   0.13850   0.13071   0.0209   1.0000   0.2990
 -12.000  -0.5748   0.14193   0.13412   0.0216   1.0000   0.2896
 -12.250  -0.6090   0.14859   0.14089   0.0208   1.0000   0.2795
 -12.500  -0.5846   0.14874   0.14093   0.0228   1.0000   0.2712
 -12.750  -0.6150   0.15553   0.14778   0.0223   1.0000   0.2635
 -13.000  -0.5954   0.15568   0.14784   0.0244   1.0000   0.2555
 -13.250  -0.6140   0.16104   0.15323   0.0243   1.0000   0.2469
 -13.500  -0.6094   0.16266   0.15482   0.0257   1.0000   0.2374
 -13.750  -0.6258   0.16821   0.16039   0.0259   1.0000   0.2315
 -14.000  -0.6192   0.16948   0.16162   0.0278   1.0000   0.2233
 -14.250  -0.6490   0.17730   0.16951   0.0271   1.0000   0.2169
 -14.500  -0.6307   0.17640   0.16851   0.0301   1.0000   0.2110
 -14.750  -0.6687   0.18578   0.17801   0.0285   1.0000   0.2017
 -15.000  -0.6447   0.18341   0.17553   0.0322   1.0000   0.1973
 -15.250  -0.6542   0.18684   0.17897   0.0330   1.0000   0.1898
 -15.500  -0.6751   0.19408   0.18624   0.0329   1.0000   0.1859
 -15.750  -0.6636   0.19330   0.18539   0.0363   1.0000   0.1810
 -16.000  -0.6747   0.19709   0.18919   0.0370   1.0000   0.1742
 -16.250  -0.6911   0.20350   0.19564   0.0372   1.0000   0.1704
 -16.500  -0.6840   0.20315   0.19523   0.0406   1.0000   0.1650
 -16.750  -0.6961   0.20704   0.19914   0.0412   1.0000   0.1588
 -17.000  -0.7149   0.21470   0.20683   0.0412   1.0000   0.1555
 -17.250  -0.7069   0.21338   0.20545   0.0449   1.0000   0.1522
 -17.500  -0.7133   0.21610   0.20816   0.0467   1.0000   0.1470
 -17.750  -0.7284   0.22128   0.21339   0.0469   1.0000   0.1426
 -18.000  -0.7401   0.22718   0.21927   0.0480   1.0000   0.1403
 -18.250  -0.7363   0.22626   0.21830   0.0516   1.0000   0.1370
 -18.500  -0.7436   0.22900   0.22106   0.0534   1.0000   0.1316
 -18.750  -0.7617   0.23581   0.22793   0.0530   1.0000   0.1271
 -19.000  -0.7692   0.24016   0.23225   0.0548   1.0000   0.1256
 -19.250  -0.7677   0.23927   0.23132   0.0585   1.0000   0.1232
 -19.500  -0.7738   0.24159   0.23364   0.0608   1.0000   0.1192
 -19.750  -0.7833   0.24503   0.23709   0.0622   1.0000   0.1157
 -20.000  -0.7988   0.25164   0.24375   0.0622   1.0000   0.1127
