  
       XFOIL         Version 6.99
  
 Calculated polar for: SD2030-086-88                                   
  
 1 1 Reynolds number fixed          Mach number fixed         
  
 xtrf =   1.000 (top)        1.000 (bottom)  
 Mach =   0.000     Re =     0.050 e 6     Ncrit =   9.000
  
   alpha    CL        CD       CDp       CM     Top_Xtr  Bot_Xtr
  ------ -------- --------- --------- -------- -------- --------
   0.000  -0.0012   0.01975   0.00943  -0.0183   1.0000   1.0000
   0.250   0.0188   0.02008   0.00959  -0.0177   1.0000   1.0000
   0.500   0.0387   0.02044   0.00980  -0.0171   1.0000   1.0000
   0.750   0.0585   0.02083   0.01006  -0.0166   1.0000   1.0000
   1.000   0.0781   0.02127   0.01039  -0.0161   1.0000   1.0000
   1.250   0.0975   0.02174   0.01078  -0.0157   1.0000   1.0000
   1.500   0.1166   0.02227   0.01124  -0.0152   1.0000   1.0000
   1.750   0.1354   0.02283   0.01175  -0.0149   1.0000   1.0000
   2.000   0.1539   0.02345   0.01233  -0.0146   1.0000   1.0000
   2.250   0.1719   0.02414   0.01300  -0.0143   1.0000   1.0000
   2.500   0.1895   0.02488   0.01374  -0.0141   1.0000   1.0000
   2.750   0.2065   0.02570   0.01458  -0.0140   1.0000   1.0000
   3.000   0.2368   0.02695   0.01588  -0.0165   0.9938   1.0000
   3.250   0.2998   0.02880   0.01784  -0.0249   0.9681   1.0000
   3.500   0.3597   0.03023   0.01943  -0.0321   0.9416   1.0000
   3.750   0.4171   0.03121   0.02060  -0.0382   0.9142   1.0000
   4.000   0.4704   0.03174   0.02135  -0.0429   0.8846   1.0000
   4.250   0.5234   0.03189   0.02178  -0.0467   0.8539   1.0000
   4.500   0.5809   0.03147   0.02168  -0.0503   0.8218   1.0000
   4.750   0.6515   0.02997   0.02065  -0.0543   0.7892   1.0000
   5.000   0.7123   0.02791   0.01900  -0.0556   0.7517   1.0000
   5.250   0.7738   0.02513   0.01664  -0.0555   0.7058   1.0000
   5.500   0.8185   0.02310   0.01472  -0.0532   0.6393   1.0000
   5.750   0.8486   0.02258   0.01385  -0.0499   0.5517   1.0000
   6.000   0.8685   0.02346   0.01414  -0.0466   0.4644   1.0000
   6.250   0.8862   0.02492   0.01511  -0.0439   0.3908   1.0000
   6.500   0.9055   0.02661   0.01636  -0.0419   0.3312   1.0000
   6.750   0.9271   0.02847   0.01794  -0.0404   0.2843   1.0000
   7.000   0.9485   0.03031   0.01965  -0.0391   0.2476   1.0000
   7.250   0.9724   0.03244   0.02179  -0.0381   0.2205   1.0000
   7.500   0.9943   0.03453   0.02394  -0.0370   0.1981   1.0000
   7.750   1.0166   0.03713   0.02678  -0.0359   0.1824   1.0000
   8.000   1.0351   0.03953   0.02941  -0.0344   0.1671   1.0000
   8.250   1.0540   0.04259   0.03273  -0.0330   0.1565   1.0000
   8.500   1.0723   0.04556   0.03580  -0.0317   0.1452   1.0000
   8.750   1.0765   0.04883   0.03978  -0.0286   0.1377   1.0000
   9.000   1.0896   0.05259   0.04371  -0.0270   0.1306   1.0000
   9.250   1.0844   0.05649   0.04830  -0.0236   0.1264   1.0000
   9.500   1.1013   0.06027   0.05199  -0.0228   0.1182   1.0000
   9.750   1.0898   0.06469   0.05696  -0.0196   0.1174   1.0000
  10.000   1.0751   0.06926   0.06193  -0.0168   0.1170   1.0000
  10.250   1.0579   0.07392   0.06689  -0.0145   0.1170   1.0000
  10.500   1.0387   0.07852   0.07169  -0.0125   0.1173   1.0000
  10.750   1.0201   0.08328   0.07656  -0.0111   0.1179   1.0000
  11.000   1.0051   0.08849   0.08186  -0.0107   0.1184   1.0000
  11.000   1.0042   0.08846   0.08185  -0.0108   0.1186   1.0000
  11.500   0.7793   0.13695   0.12974  -0.0582   0.3219   1.0000
  11.750   0.7940   0.14232   0.13518  -0.0584   0.3140   1.0000
  11.500   0.7793   0.13695   0.12974  -0.0582   0.3219   1.0000
  11.600   0.7849   0.13887   0.13170  -0.0583   0.3186   1.0000
  11.700   0.8000   0.14192   0.13481  -0.0579   0.3147   1.0000
  12.000   0.8000   0.14644   0.13933  -0.0586   0.2999   1.0000
  12.250   0.8162   0.15173   0.14470  -0.0582   0.2866   1.0000
  12.500   0.7938   0.15338   0.14625  -0.0608   0.2787   1.0000
  12.750   0.8052   0.15861   0.15152  -0.0613   0.2706   1.0000
  13.000   0.8160   0.16328   0.15623  -0.0613   0.2573   1.0000
  13.250   0.8333   0.16891   0.16196  -0.0609   0.2439   1.0000
  13.500   0.8107   0.16957   0.16248  -0.0644   0.2386   1.0000
  13.750   0.8305   0.17594   0.16894  -0.0641   0.2291   1.0000
  14.000   0.8213   0.17747   0.17043  -0.0666   0.2204   1.0000
  14.250   0.8272   0.18169   0.17465  -0.0677   0.2121   1.0000
  14.500   0.8541   0.18949   0.18253  -0.0666   0.2014   1.0000
  14.750   0.8364   0.18920   0.18215  -0.0706   0.1971   1.0000
  15.000   0.8636   0.19743   0.19047  -0.0694   0.1873   1.0000
  15.250   0.8486   0.19697   0.18992  -0.0735   0.1837   1.0000
  15.750   0.8608   0.20438   0.19732  -0.0765   0.1698   1.0000
  16.000   0.8696   0.20815   0.20111  -0.0777   0.1626   1.0000
  16.250   0.8852   0.21495   0.20793  -0.0781   0.1590   1.0000
  16.000   0.8696   0.20815   0.20111  -0.0777   0.1626   1.0000
  16.100   0.8904   0.21482   0.20787  -0.0758   0.1598   1.0000
  16.200   0.8883   0.21539   0.20839  -0.0771   0.1593   1.0000
  16.500   0.8790   0.21512   0.20805  -0.0819   0.1546   1.0000
  16.750   0.8892   0.21917   0.21216  -0.0830   0.1487   1.0000
  17.000   0.9028   0.22552   0.21852  -0.0836   0.1450   1.0000
  17.250   0.8994   0.22579   0.21874  -0.0873   0.1404   1.0000
  17.500   0.9128   0.23065   0.22364  -0.0877   0.1338   1.0000
  17.750   0.9227   0.23607   0.22906  -0.0891   0.1313   1.0000
  18.000   0.9211   0.23635   0.22929  -0.0930   0.1274   1.0000
  18.250   0.9291   0.23971   0.23267  -0.0947   0.1229   1.0000
  18.500   0.9514   0.24946   0.24252  -0.0934   0.1188   1.0000
  18.750   0.9510   0.25021   0.24320  -0.0970   0.1177   1.0000
  19.000   0.9510   0.25031   0.24326  -0.1008   0.1147   1.0000
  19.250   0.9580   0.25325   0.24620  -0.1030   0.1109   1.0000
  19.500   0.9689   0.25765   0.25063  -0.1041   0.1074   1.0000
  19.750   0.9870   0.26776   0.26082  -0.1037   0.1049   1.0000
  20.000   0.9842   0.26533   0.25834  -0.1082   0.1036   1.0000
   0.000  -0.0012   0.01975   0.00943  -0.0183   1.0000   1.0000
  -0.250  -0.0212   0.01946   0.00933  -0.0189   1.0000   1.0000
  -0.500  -0.0413   0.01920   0.00931  -0.0196   1.0000   1.0000
  -0.750  -0.0612   0.01898   0.00934  -0.0204   1.0000   1.0000
  -1.000  -0.0810   0.01879   0.00943  -0.0212   1.0000   1.0000
  -1.250  -0.1006   0.01863   0.00960  -0.0221   1.0000   1.0000
  -1.500  -0.1199   0.01851   0.00986  -0.0231   1.0000   1.0000
  -1.750  -0.1387   0.01842   0.01028  -0.0243   1.0000   1.0000
  -2.250  -0.2007   0.02373   0.01255  -0.0276   1.0000   0.1898
  -2.500  -0.2254   0.02513   0.01385  -0.0287   1.0000   0.1568
  -2.750  -0.2508   0.02665   0.01545  -0.0298   1.0000   0.1430
  -3.000  -0.2754   0.02808   0.01705  -0.0307   1.0000   0.1317
  -2.750  -0.2508   0.02665   0.01545  -0.0298   1.0000   0.1430
  -2.850  -0.2612   0.02718   0.01618  -0.0302   1.0000   0.1387
  -2.950  -0.2708   0.02774   0.01676  -0.0306   1.0000   0.1336
  -3.250  -0.3012   0.02981   0.01923  -0.0315   1.0000   0.1256
  -3.500  -0.3268   0.03192   0.02179  -0.0322   1.0000   0.1246
  -3.750  -0.3517   0.03440   0.02474  -0.0329   1.0000   0.1261
  -4.000  -0.3749   0.03726   0.02796  -0.0334   1.0000   0.1288
  -4.250  -0.3999   0.04058   0.03215  -0.0334   1.0000   0.1363
  -4.500  -0.4201   0.04416   0.03610  -0.0336   1.0000   0.1420
  -4.750  -0.4420   0.04865   0.04114  -0.0330   1.0000   0.1605
  -5.500  -0.4403   0.07327   0.06731   0.0102   1.0000   0.4774
  -5.750  -0.4564   0.07607   0.07010   0.0053   1.0000   0.4343
  -6.000  -0.4466   0.07772   0.07163   0.0008   1.0000   0.4031
  -6.250  -0.4602   0.08090   0.07479  -0.0029   1.0000   0.3759
  -6.000  -0.4466   0.07772   0.07163   0.0008   1.0000   0.4031
  -6.100  -0.4578   0.07930   0.07323  -0.0008   1.0000   0.3902
  -6.200  -0.4385   0.07904   0.07287  -0.0022   1.0000   0.3836
  -6.500  -0.4381   0.08200   0.07575  -0.0062   1.0000   0.3573
  -6.750  -0.4330   0.08415   0.07780  -0.0092   1.0000   0.3388
  -7.000  -0.4608   0.08891   0.08259  -0.0113   1.0000   0.3180
  -7.250  -0.4574   0.09140   0.08499  -0.0138   1.0000   0.3035
  -7.500  -0.4293   0.09167   0.08507  -0.0159   1.0000   0.2930
  -8.000  -0.4223   0.09676   0.08995  -0.0186   1.0000   0.2684
  -8.250  -0.4283   0.10014   0.09328  -0.0198   1.0000   0.2577
  -8.500  -0.4438   0.10448   0.09762  -0.0214   1.0000   0.2452
  -8.750  -0.4248   0.10517   0.09816  -0.0210   1.0000   0.2360
  -9.000  -0.4281   0.10848   0.10140  -0.0215   1.0000   0.2282
  -9.250  -0.4469   0.11338   0.10631  -0.0232   1.0000   0.2163
  -9.500  -0.4275   0.11382   0.10661  -0.0216   1.0000   0.2093
  -9.250  -0.4469   0.11338   0.10631  -0.0232   1.0000   0.2163
  -9.350  -0.4355   0.11320   0.10606  -0.0222   1.0000   0.2151
  -9.450  -0.4279   0.11336   0.10616  -0.0216   1.0000   0.2118
  -9.750  -0.4378   0.11793   0.11070  -0.0224   1.0000   0.2005
 -10.000  -0.4346   0.11992   0.11262  -0.0218   1.0000   0.1921
 -10.250  -0.4396   0.12365   0.11633  -0.0218   1.0000   0.1853
 -10.500  -0.4411   0.12620   0.11883  -0.0214   1.0000   0.1770
 -10.750  -0.4522   0.13091   0.12353  -0.0218   1.0000   0.1723
 -11.000  -0.4438   0.13210   0.12463  -0.0200   1.0000   0.1667
 -11.250  -0.4732   0.13990   0.13249  -0.0223   1.0000   0.1589
 -11.500  -0.4566   0.13958   0.13205  -0.0194   1.0000   0.1570
 -11.750  -0.4547   0.14157   0.13399  -0.0181   1.0000   0.1513
 -12.000  -0.4846   0.15014   0.14262  -0.0203   1.0000   0.1445
 -12.250  -0.4707   0.14974   0.14212  -0.0175   1.0000   0.1432
 -12.500  -0.4671   0.15118   0.14350  -0.0157   1.0000   0.1386
 -12.750  -0.4756   0.15481   0.14714  -0.0153   1.0000   0.1334
 -13.000  -0.4942   0.16186   0.15419  -0.0159   1.0000   0.1299
 -13.250  -0.4848   0.16159   0.15384  -0.0133   1.0000   0.1278
 -13.500  -0.4865   0.16372   0.15594  -0.0118   1.0000   0.1233
 -13.750  -0.5035   0.16961   0.16190  -0.0125   1.0000   0.1172
 -14.000  -0.5092   0.17364   0.16588  -0.0113   1.0000   0.1153
 -14.250  -0.5046   0.17374   0.16592  -0.0089   1.0000   0.1128
 -14.500  -0.5089   0.17623   0.16840  -0.0075   1.0000   0.1086
 -14.750  -0.5186   0.18011   0.17228  -0.0069   1.0000   0.1047
 -15.000  -0.5425   0.19018   0.18238  -0.0078   1.0000   0.1017
 -15.250  -0.5358   0.18892   0.18105  -0.0051   1.0000   0.1010
 -15.500  -0.5355   0.18941   0.18150  -0.0026   1.0000   0.0989
 -15.750  -0.5407   0.19183   0.18390  -0.0010   1.0000   0.0959
 -16.000  -0.5483   0.19505   0.18711   0.0002   1.0000   0.0926
 -16.250  -0.5590   0.19937   0.19144   0.0008   1.0000   0.0899
 -16.500  -0.5801   0.21004   0.20214   0.0003   1.0000   0.0877
 -16.750  -0.5780   0.20896   0.20101   0.0029   1.0000   0.0873
 -17.000  -0.5786   0.20875   0.20075   0.0056   1.0000   0.0860
 -17.250  -0.5837   0.21052   0.20254   0.0077   1.0000   0.0836
 -17.500  -0.5909   0.21327   0.20528   0.0094   1.0000   0.0809
 -17.750  -0.5992   0.21647   0.20848   0.0107   1.0000   0.0783
 -18.000  -0.6113   0.22188   0.21391   0.0111   1.0000   0.0755
 -18.250  -0.6286   0.23219   0.22423   0.0111   1.0000   0.0739
 -18.500  -0.6276   0.22994   0.22193   0.0142   1.0000   0.0734
 -18.750  -0.6309   0.22985   0.22181   0.0169   1.0000   0.0723
 -19.000  -0.6371   0.23157   0.22351   0.0191   1.0000   0.0704
 -19.250  -0.6447   0.23423   0.22617   0.0210   1.0000   0.0682
 -19.500  -0.6528   0.23712   0.22906   0.0227   1.0000   0.0664
 -19.750  -0.6612   0.24033   0.23227   0.0242   1.0000   0.0645
 -20.000  -0.6705   0.24413   0.23608   0.0255   1.0000   0.0629
