  
       XFOIL         Version 6.99
  
 Calculated polar for: CLARK-Y 11.7% smoothed                          
  
 1 1 Reynolds number fixed          Mach number fixed         
  
 xtrf =   1.000 (top)        1.000 (bottom)  
 Mach =   0.000     Re =     0.050 e 6     Ncrit =   9.000
  
   alpha    CL        CD       CDp       CM     Top_Xtr  Bot_Xtr
  ------ -------- --------- --------- -------- -------- --------
   0.000   0.0015   0.03027   0.02119  -0.0357   0.9675   1.0000
   0.250   0.0435   0.03139   0.02199  -0.0395   0.9524   1.0000
   0.500   0.0839   0.03243   0.02277  -0.0429   0.9369   1.0000
   0.750   0.1238   0.03340   0.02351  -0.0460   0.9208   1.0000
   1.000   0.1621   0.03431   0.02423  -0.0487   0.9045   1.0000
   1.250   0.1998   0.03515   0.02492  -0.0511   0.8880   1.0000
   1.500   0.2371   0.03593   0.02557  -0.0534   0.8713   1.0000
   1.750   0.2737   0.03665   0.02618  -0.0554   0.8546   1.0000
   2.000   0.3094   0.03733   0.02676  -0.0571   0.8381   1.0000
   2.250   0.3450   0.03795   0.02731  -0.0586   0.8215   1.0000
   2.500   0.3801   0.03851   0.02782  -0.0599   0.8049   1.0000
   2.750   0.4146   0.03903   0.02830  -0.0610   0.7885   1.0000
   3.000   0.4489   0.03948   0.02873  -0.0620   0.7722   1.0000
   3.250   0.4822   0.03991   0.02914  -0.0627   0.7560   1.0000
   3.500   0.5148   0.04029   0.02952  -0.0632   0.7400   1.0000
   3.750   0.5467   0.04064   0.02989  -0.0635   0.7240   1.0000
   4.000   0.5764   0.04104   0.03030  -0.0634   0.7084   1.0000
   4.250   0.6054   0.04143   0.03072  -0.0632   0.6929   1.0000
   4.500   0.6324   0.04189   0.03123  -0.0628   0.6777   1.0000
   4.750   0.6567   0.04250   0.03187  -0.0621   0.6629   1.0000
   5.000   0.6796   0.04322   0.03262  -0.0612   0.6485   1.0000
   5.000   0.6796   0.04322   0.03262  -0.0612   0.6485   1.0000
   5.100   0.7043   0.04261   0.03205  -0.0622   0.6450   1.0000
   5.200   0.7379   0.04156   0.03108  -0.0640   0.6426   1.0000
   5.500   0.7698   0.04210   0.03169  -0.0632   0.6268   1.0000
   5.750   0.7761   0.04373   0.03335  -0.0609   0.6123   1.0000
   6.000   0.7769   0.04589   0.03553  -0.0584   0.5983   1.0000
   6.250   0.7759   0.04841   0.03809  -0.0562   0.5848   1.0000
   6.500   0.8022   0.04906   0.03882  -0.0556   0.5749   1.0000
   6.750   0.8306   0.04952   0.03938  -0.0551   0.5648   1.0000
   7.000   0.8003   0.05475   0.04458  -0.0524   0.5515   1.0000
   7.250   0.7947   0.05817   0.04803  -0.0510   0.5409   1.0000
   7.500   0.8396   0.05731   0.04734  -0.0508   0.5325   1.0000
   7.750   0.7971   0.06404   0.05402  -0.0490   0.5211   1.0000
   8.000   0.8131   0.06582   0.05588  -0.0483   0.5120   1.0000
   8.250   0.8328   0.06709   0.05726  -0.0474   0.5013   1.0000
   8.500   0.9804   0.05429   0.04493  -0.0461   0.4828   1.0000
   8.750   0.8219   0.07396   0.06422  -0.0454   0.4779   1.0000
   9.000   1.1547   0.04354   0.03454  -0.0493   0.4332   1.0000
   9.250   1.1756   0.04353   0.03462  -0.0472   0.4130   1.0000
   9.500   1.2186   0.04200   0.03303  -0.0467   0.3855   1.0000
   9.750   1.2486   0.04142   0.03235  -0.0451   0.3560   1.0000
  10.000   1.2678   0.04162   0.03239  -0.0427   0.3256   1.0000
  10.250   1.2666   0.04310   0.03392  -0.0383   0.3017   1.0000
  10.500   1.2813   0.04410   0.03475  -0.0359   0.2769   1.0000
  10.750   1.2842   0.04581   0.03653  -0.0325   0.2591   1.0000
  11.000   1.2907   0.04757   0.03832  -0.0297   0.2439   1.0000
  11.250   1.2994   0.04929   0.04005  -0.0273   0.2305   1.0000
  11.500   1.3142   0.05092   0.04164  -0.0257   0.2181   1.0000
  11.750   1.2951   0.05380   0.04484  -0.0208   0.2128   1.0000
  12.000   1.3097   0.05562   0.04665  -0.0193   0.2029   1.0000
  12.250   1.2837   0.05912   0.05046  -0.0149   0.1998   1.0000
  12.500   1.3086   0.06062   0.05190  -0.0143   0.1897   1.0000
  12.750   1.2749   0.06493   0.05653  -0.0105   0.1886   1.0000
  13.000   1.2369   0.07028   0.06213  -0.0080   0.1885   1.0000
  13.250   1.1910   0.07729   0.06933  -0.0073   0.1891   1.0000
  13.500   1.1410   0.08639   0.07855  -0.0089   0.1904   1.0000
  14.000   0.8401   0.15513   0.14668  -0.0483   0.2509   1.0000
  13.750   0.8158   0.15376   0.14520  -0.0500   0.2695   1.0000
  13.850   0.8240   0.15523   0.14671  -0.0500   0.2672   1.0000
  13.950   0.8336   0.15693   0.14845  -0.0498   0.2657   1.0000
  14.750   0.8180   0.17825   0.16984  -0.0603   0.3107   1.0000
  14.500   0.7899   0.17207   0.16355  -0.0604   0.3177   1.0000
  14.600   0.7964   0.17372   0.16523  -0.0605   0.3147   1.0000
  14.700   0.8221   0.17805   0.16964  -0.0599   0.3110   1.0000
  15.000   0.8006   0.17911   0.17065  -0.0624   0.3045   1.0000
  15.250   0.8224   0.18414   0.17580  -0.0624   0.2966   1.0000
  15.500   0.8199   0.18728   0.17893  -0.0642   0.2937   1.0000
  15.750   0.8198   0.18946   0.18113  -0.0656   0.2851   1.0000
  16.000   0.8397   0.19533   0.18708  -0.0658   0.2793   1.0000
  16.250   0.8304   0.19617   0.18789  -0.0681   0.2727   1.0000
  16.500   0.8502   0.20140   0.19323  -0.0682   0.2659   1.0000
  16.750   0.8473   0.20382   0.19562  -0.0703   0.2620   1.0000
  17.000   0.8528   0.20642   0.19825  -0.0715   0.2534   1.0000
  17.250   0.8748   0.21371   0.20564  -0.0716   0.2491   1.0000
  17.500   0.8627   0.21296   0.20486  -0.0747   0.2433   1.0000
  17.750   0.8820   0.21840   0.21039  -0.0745   0.2355   1.0000
  18.000   0.8809   0.22073   0.21269  -0.0769   0.2322   1.0000
  18.250   0.8836   0.22276   0.21474  -0.0787   0.2249   1.0000
  18.500   0.9070   0.23072   0.22279  -0.0782   0.2192   1.0000
  18.750   0.8965   0.22930   0.22132  -0.0818   0.2139   1.0000
  19.000   0.9088   0.23332   0.22540  -0.0825   0.2074   1.0000
  19.250   0.9186   0.23826   0.23037  -0.0837   0.2038   1.0000
  19.500   0.9174   0.23878   0.23089  -0.0863   0.1968   1.0000
  19.750   0.9417   0.24744   0.23966  -0.0854   0.1909   1.0000
  20.000   0.9331   0.24600   0.23815  -0.0892   0.1877   1.0000
   0.000   0.0015   0.03027   0.02119  -0.0357   0.9675   1.0000
  -0.250  -0.0430   0.02908   0.02040  -0.0313   0.9824   1.0000
  -0.500  -0.0966   0.02748   0.01946  -0.0253   0.9966   1.0000
  -0.750  -0.1618   0.02968   0.01956  -0.0191   1.0000   0.3858
  -1.000  -0.1864   0.03021   0.01974  -0.0191   1.0000   0.3206
  -1.250  -0.2105   0.03059   0.02009  -0.0192   1.0000   0.2826
  -1.500  -0.2298   0.03107   0.02045  -0.0201   1.0000   0.2581
  -1.750  -0.2504   0.03164   0.02111  -0.0207   1.0000   0.2385
  -2.000  -0.2706   0.03230   0.02186  -0.0214   1.0000   0.2221
  -2.250  -0.2898   0.03310   0.02272  -0.0223   1.0000   0.2090
  -2.500  -0.3101   0.03407   0.02406  -0.0232   1.0000   0.1974
  -2.750  -0.3295   0.03534   0.02554  -0.0241   1.0000   0.1888
  -3.000  -0.3489   0.03665   0.02715  -0.0250   1.0000   0.1805
  -3.250  -0.3674   0.03839   0.02908  -0.0259   1.0000   0.1747
  -3.500  -0.3871   0.04057   0.03187  -0.0264   1.0000   0.1700
  -3.750  -0.4062   0.04333   0.03514  -0.0267   1.0000   0.1691
  -4.000  -0.4237   0.04628   0.03853  -0.0269   1.0000   0.1676
  -4.250  -0.4404   0.05007   0.04276  -0.0265   1.0000   0.1707
  -4.500  -0.4561   0.05387   0.04682  -0.0265   1.0000   0.1779
   0.000   0.0015   0.03027   0.02119  -0.0357   0.9675   1.0000
   0.250   0.0435   0.03139   0.02199  -0.0395   0.9524   1.0000
   0.500   0.0839   0.03243   0.02277  -0.0429   0.9369   1.0000
   0.750   0.1238   0.03340   0.02351  -0.0460   0.9208   1.0000
   1.000   0.1621   0.03431   0.02423  -0.0487   0.9045   1.0000
   1.250   0.1998   0.03515   0.02492  -0.0511   0.8880   1.0000
   1.500   0.2371   0.03593   0.02557  -0.0534   0.8713   1.0000
   1.750   0.2737   0.03665   0.02618  -0.0554   0.8546   1.0000
   2.000   0.3094   0.03733   0.02676  -0.0571   0.8381   1.0000
   2.250   0.3450   0.03795   0.02731  -0.0586   0.8215   1.0000
   2.500   0.3801   0.03851   0.02782  -0.0599   0.8049   1.0000
   2.750   0.4146   0.03903   0.02830  -0.0610   0.7885   1.0000
   3.000   0.4489   0.03948   0.02873  -0.0620   0.7722   1.0000
   3.250   0.4822   0.03991   0.02914  -0.0627   0.7560   1.0000
   3.500   0.5148   0.04029   0.02952  -0.0632   0.7400   1.0000
   3.750   0.5467   0.04064   0.02989  -0.0635   0.7240   1.0000
   4.000   0.5764   0.04104   0.03030  -0.0634   0.7084   1.0000
   4.250   0.6054   0.04143   0.03072  -0.0632   0.6929   1.0000
   4.500   0.6324   0.04189   0.03123  -0.0628   0.6777   1.0000
   4.750   0.6567   0.04250   0.03187  -0.0621   0.6629   1.0000
   5.000   0.6796   0.04322   0.03262  -0.0612   0.6485   1.0000
   5.000   0.6796   0.04322   0.03262  -0.0612   0.6485   1.0000
   5.100   0.7043   0.04261   0.03205  -0.0622   0.6450   1.0000
   5.200   0.7379   0.04156   0.03108  -0.0640   0.6426   1.0000
   5.500   0.7698   0.04210   0.03169  -0.0632   0.6268   1.0000
   5.750   0.7761   0.04373   0.03335  -0.0609   0.6123   1.0000
   6.000   0.7769   0.04589   0.03553  -0.0584   0.5983   1.0000
   6.250   0.7759   0.04841   0.03809  -0.0562   0.5848   1.0000
   6.500   0.8022   0.04906   0.03882  -0.0556   0.5749   1.0000
   6.750   0.8306   0.04952   0.03938  -0.0551   0.5648   1.0000
   7.000   0.8003   0.05475   0.04458  -0.0524   0.5515   1.0000
   7.250   0.7947   0.05817   0.04803  -0.0510   0.5409   1.0000
   7.500   0.8396   0.05731   0.04734  -0.0508   0.5325   1.0000
   7.750   0.7971   0.06404   0.05402  -0.0490   0.5211   1.0000
   8.000   0.8131   0.06582   0.05588  -0.0483   0.5120   1.0000
   8.250   0.8328   0.06709   0.05726  -0.0474   0.5013   1.0000
   8.500   0.9804   0.05429   0.04493  -0.0461   0.4828   1.0000
   8.750   0.8219   0.07396   0.06422  -0.0454   0.4779   1.0000
   9.000   1.1547   0.04354   0.03454  -0.0493   0.4332   1.0000
   9.250   1.1756   0.04353   0.03462  -0.0472   0.4130   1.0000
   9.500   1.2186   0.04200   0.03303  -0.0467   0.3855   1.0000
   9.750   1.2486   0.04142   0.03235  -0.0451   0.3560   1.0000
  10.000   1.2678   0.04162   0.03239  -0.0427   0.3256   1.0000
  10.250   1.2666   0.04310   0.03392  -0.0383   0.3017   1.0000
  10.500   1.2813   0.04410   0.03475  -0.0359   0.2769   1.0000
  10.750   1.2842   0.04581   0.03653  -0.0325   0.2591   1.0000
  11.000   1.2907   0.04757   0.03832  -0.0297   0.2439   1.0000
  11.250   1.2994   0.04929   0.04005  -0.0273   0.2305   1.0000
  11.500   1.3142   0.05092   0.04164  -0.0257   0.2181   1.0000
  11.750   1.2951   0.05380   0.04484  -0.0208   0.2128   1.0000
  12.000   1.3097   0.05562   0.04665  -0.0193   0.2029   1.0000
  12.250   1.2837   0.05912   0.05046  -0.0149   0.1998   1.0000
  12.500   1.3086   0.06062   0.05190  -0.0143   0.1897   1.0000
  12.750   1.2749   0.06493   0.05653  -0.0105   0.1886   1.0000
  13.000   1.2369   0.07028   0.06213  -0.0080   0.1885   1.0000
  13.250   1.1910   0.07729   0.06933  -0.0073   0.1891   1.0000
  13.500   1.1410   0.08639   0.07855  -0.0089   0.1904   1.0000
  14.000   0.8401   0.15513   0.14668  -0.0483   0.2509   1.0000
  13.750   0.8158   0.15376   0.14520  -0.0500   0.2695   1.0000
  13.850   0.8240   0.15523   0.14671  -0.0500   0.2672   1.0000
  13.950   0.8336   0.15693   0.14845  -0.0498   0.2657   1.0000
  14.750   0.8180   0.17825   0.16984  -0.0603   0.3107   1.0000
  14.500   0.7899   0.17207   0.16355  -0.0604   0.3177   1.0000
  14.600   0.7964   0.17372   0.16523  -0.0605   0.3147   1.0000
  14.700   0.8221   0.17805   0.16964  -0.0599   0.3110   1.0000
  15.000   0.8006   0.17911   0.17065  -0.0624   0.3045   1.0000
  15.250   0.8224   0.18414   0.17580  -0.0624   0.2966   1.0000
  15.500   0.8199   0.18728   0.17893  -0.0642   0.2937   1.0000
  15.750   0.8198   0.18946   0.18113  -0.0656   0.2851   1.0000
  16.000   0.8397   0.19533   0.18708  -0.0658   0.2793   1.0000
  16.250   0.8304   0.19617   0.18789  -0.0681   0.2727   1.0000
  16.500   0.8502   0.20140   0.19323  -0.0682   0.2659   1.0000
  16.750   0.8473   0.20382   0.19562  -0.0703   0.2620   1.0000
  17.000   0.8528   0.20642   0.19825  -0.0715   0.2534   1.0000
  17.250   0.8748   0.21371   0.20564  -0.0716   0.2491   1.0000
  17.500   0.8627   0.21296   0.20486  -0.0747   0.2433   1.0000
  17.750   0.8820   0.21840   0.21039  -0.0745   0.2355   1.0000
  18.000   0.8809   0.22073   0.21269  -0.0769   0.2322   1.0000
  18.250   0.8836   0.22276   0.21474  -0.0787   0.2249   1.0000
  18.500   0.9070   0.23072   0.22279  -0.0782   0.2192   1.0000
  18.750   0.8965   0.22930   0.22132  -0.0818   0.2139   1.0000
  19.000   0.9088   0.23332   0.22540  -0.0825   0.2074   1.0000
  19.250   0.9186   0.23826   0.23037  -0.0837   0.2038   1.0000
  19.500   0.9174   0.23878   0.23089  -0.0863   0.1968   1.0000
  19.750   0.9417   0.24744   0.23966  -0.0854   0.1909   1.0000
  20.000   0.9331   0.24600   0.23815  -0.0892   0.1877   1.0000
   0.000   0.0015   0.03027   0.02119  -0.0357   0.9675   1.0000
  -0.250  -0.0430   0.02908   0.02040  -0.0313   0.9824   1.0000
  -0.500  -0.0966   0.02748   0.01946  -0.0253   0.9966   1.0000
  -0.750  -0.1618   0.02968   0.01956  -0.0191   1.0000   0.3858
  -1.000  -0.1864   0.03021   0.01974  -0.0191   1.0000   0.3206
  -1.250  -0.2105   0.03059   0.02009  -0.0192   1.0000   0.2826
  -1.500  -0.2298   0.03107   0.02045  -0.0201   1.0000   0.2581
  -1.750  -0.2504   0.03164   0.02111  -0.0207   1.0000   0.2385
  -2.000  -0.2706   0.03230   0.02186  -0.0214   1.0000   0.2221
  -2.250  -0.2898   0.03310   0.02272  -0.0223   1.0000   0.2090
  -2.500  -0.3101   0.03407   0.02406  -0.0232   1.0000   0.1974
  -2.750  -0.3295   0.03534   0.02554  -0.0241   1.0000   0.1888
  -3.000  -0.3489   0.03665   0.02715  -0.0250   1.0000   0.1805
  -3.250  -0.3674   0.03839   0.02908  -0.0259   1.0000   0.1747
  -3.500  -0.3871   0.04057   0.03187  -0.0264   1.0000   0.1700
  -3.750  -0.4062   0.04333   0.03514  -0.0267   1.0000   0.1691
  -4.000  -0.4237   0.04628   0.03853  -0.0269   1.0000   0.1676
  -4.250  -0.4404   0.05007   0.04276  -0.0265   1.0000   0.1707
  -4.500  -0.4561   0.05387   0.04682  -0.0265   1.0000   0.1779
  -5.250  -0.4559   0.08148   0.07597   0.0106   1.0000   0.4055
  -5.500  -0.4417   0.08308   0.07748   0.0071   1.0000   0.3873
  -5.750  -0.4335   0.08503   0.07935   0.0037   1.0000   0.3707
  -5.500  -0.4417   0.08308   0.07748   0.0071   1.0000   0.3873
  -5.600  -0.4330   0.08338   0.07774   0.0057   1.0000   0.3796
  -5.700  -0.4442   0.08516   0.07952   0.0042   1.0000   0.3722
  -6.000  -0.4314   0.08740   0.08166   0.0004   1.0000   0.3552
  -6.250  -0.4350   0.09017   0.08438  -0.0029   1.0000   0.3397
  -6.500  -0.3867   0.08938   0.08337  -0.0074   1.0000   0.3338
  -6.750  -0.3927   0.09247   0.08641  -0.0100   1.0000   0.3218
  -7.000  -0.3651   0.09267   0.08645  -0.0140   1.0000   0.3129
  -7.250  -0.3635   0.09538   0.08907  -0.0166   1.0000   0.3044
  -7.500  -0.3552   0.09690   0.09050  -0.0194   1.0000   0.2938
  -7.750  -0.3438   0.09891   0.09238  -0.0216   1.0000   0.2870
  -8.000  -0.3682   0.10372   0.09721  -0.0236   1.0000   0.2736
  -8.250  -0.3305   0.10283   0.09609  -0.0254   1.0000   0.2689
  -8.500  -0.3552   0.10785   0.10113  -0.0274   1.0000   0.2569
  -8.750  -0.3241   0.10726   0.10034  -0.0281   1.0000   0.2506
  -9.000  -0.3498   0.11266   0.10577  -0.0300   1.0000   0.2405
  -9.250  -0.3226   0.11221   0.10513  -0.0300   1.0000   0.2342
  -9.500  -0.3608   0.11944   0.11244  -0.0323   1.0000   0.2246
  -9.750  -0.3280   0.11808   0.11088  -0.0313   1.0000   0.2214
 -10.000  -0.3274   0.12024   0.11298  -0.0317   1.0000   0.2131
 -10.250  -0.3457   0.12561   0.11833  -0.0329   1.0000   0.2077
 -10.500  -0.3274   0.12556   0.11816  -0.0319   1.0000   0.2018
 -10.750  -0.3641   0.13337   0.12603  -0.0344   1.0000   0.1922
 -11.000  -0.3386   0.13213   0.12463  -0.0325   1.0000   0.1899
 -11.250  -0.3356   0.13383   0.12627  -0.0321   1.0000   0.1824
 -11.500  -0.3710   0.14227   0.13477  -0.0343   1.0000   0.1763
 -11.750  -0.3481   0.14087   0.13323  -0.0322   1.0000   0.1743
 -12.000  -0.3439   0.14230   0.13460  -0.0313   1.0000   0.1685
 -12.250  -0.3549   0.14603   0.13832  -0.0316   1.0000   0.1632
 -12.500  -0.3727   0.15237   0.14465  -0.0323   1.0000   0.1601
 -12.750  -0.3582   0.15159   0.14377  -0.0303   1.0000   0.1572
 -13.000  -0.3599   0.15371   0.14585  -0.0295   1.0000   0.1519
 -13.250  -0.3776   0.15895   0.15111  -0.0303   1.0000   0.1463
 -13.500  -0.3828   0.16288   0.15498  -0.0297   1.0000   0.1440
 -13.750  -0.3749   0.16273   0.15476  -0.0278   1.0000   0.1407
 -14.000  -0.3790   0.16517   0.15717  -0.0270   1.0000   0.1361
 -14.250  -0.3896   0.16894   0.16094  -0.0269   1.0000   0.1322
 -14.500  -0.4148   0.17821   0.17023  -0.0278   1.0000   0.1293
 -14.750  -0.4042   0.17662   0.16856  -0.0256   1.0000   0.1283
 -15.000  -0.4017   0.17707   0.16896  -0.0237   1.0000   0.1253
 -15.250  -0.4069   0.17949   0.17135  -0.0226   1.0000   0.1219
 -15.500  -0.4156   0.18284   0.17470  -0.0221   1.0000   0.1182
 -15.750  -0.4380   0.19122   0.18311  -0.0229   1.0000   0.1150
 -16.000  -0.4400   0.19347   0.18531  -0.0214   1.0000   0.1139
 -16.250  -0.4358   0.19242   0.18420  -0.0190   1.0000   0.1124
 -16.500  -0.4391   0.19392   0.18567  -0.0173   1.0000   0.1091
 -16.750  -0.4463   0.19667   0.18840  -0.0163   1.0000   0.1053
 -17.000  -0.4570   0.20061   0.19235  -0.0158   1.0000   0.1023
 -17.250  -0.4867   0.21420   0.20597  -0.0170   1.0000   0.1000
 -17.500  -0.4803   0.21152   0.20323  -0.0145   1.0000   0.0996
 -17.750  -0.4785   0.21024   0.20189  -0.0120   1.0000   0.0986
 -18.000  -0.4820   0.21124   0.20287  -0.0099   1.0000   0.0964
 -18.250  -0.4887   0.21359   0.20521  -0.0084   1.0000   0.0940
 -18.500  -0.4965   0.21641   0.20802  -0.0071   1.0000   0.0915
 -18.750  -0.5055   0.21967   0.21128  -0.0060   1.0000   0.0894
 -19.000  -0.5181   0.22506   0.21668  -0.0056   1.0000   0.0873
 -19.250  -0.5346   0.23432   0.22593  -0.0054   1.0000   0.0861
 -19.500  -0.5335   0.23212   0.22369  -0.0027   1.0000   0.0856
 -19.750  -0.5353   0.23124   0.22277  -0.0000   1.0000   0.0840
