  
       XFOIL         Version 6.99
  
 Calculated polar for: Bergey BW-3  (smoothed)                         
  
 1 1 Reynolds number fixed          Mach number fixed         
  
 xtrf =   1.000 (top)        1.000 (bottom)  
 Mach =   0.000     Re =     0.050 e 6     Ncrit =   9.000
  
   alpha    CL        CD       CDp       CM     Top_Xtr  Bot_Xtr
  ------ -------- --------- --------- -------- -------- --------
   0.000   0.0421   0.03828   0.03173  -0.0395   1.0000   0.5895
   0.250   0.0614   0.03634   0.02982  -0.0384   1.0000   0.6356
   0.500   0.0877   0.03481   0.02826  -0.0393   1.0000   0.6654
   0.750   0.1356   0.03460   0.02778  -0.0465   1.0000   0.6508
   1.000   0.2106   0.03713   0.02945  -0.0621   1.0000   0.4898
   1.250   0.2560   0.03799   0.02971  -0.0679   1.0000   0.3850
   1.500   0.2904   0.03819   0.02944  -0.0706   1.0000   0.3313
   1.750   0.3187   0.03832   0.02927  -0.0720   1.0000   0.3146
   2.000   0.3739   0.03859   0.02910  -0.0781   0.9925   0.2954
   2.250   0.4367   0.03886   0.02901  -0.0856   0.9801   0.2934
   2.500   0.4959   0.03910   0.02893  -0.0923   0.9657   0.2905
   2.750   0.5543   0.03916   0.02886  -0.0990   0.9508   0.2975
   3.000   0.6101   0.03933   0.02894  -0.1050   0.9349   0.2989
   3.250   0.6672   0.03949   0.02909  -0.1109   0.9186   0.3081
   3.500   0.7244   0.03949   0.02926  -0.1167   0.9016   0.3208
   3.750   0.7807   0.03945   0.02948  -0.1221   0.8840   0.3330
   4.000   0.8387   0.03926   0.02967  -0.1276   0.8660   0.3604
   4.250   0.9161   0.03796   0.02970  -0.1365   0.8480   1.0000
   4.500   1.0157   0.03327   0.02496  -0.1413   0.8112   1.0000
   4.750   1.0723   0.02999   0.02178  -0.1399   0.7690   1.0000
   5.000   1.1168   0.02719   0.01907  -0.1368   0.7232   1.0000
   5.250   1.1377   0.02521   0.01701  -0.1299   0.6555   1.0000
   5.500   1.1459   0.02446   0.01593  -0.1218   0.5392   1.0000
   5.750   1.1376   0.02686   0.01635  -0.1131   0.2857   1.0000
   6.000   1.1412   0.02980   0.01821  -0.1090   0.2000   1.0000
   6.250   1.1552   0.03189   0.01993  -0.1064   0.1737   1.0000
   6.500   1.1759   0.03371   0.02158  -0.1047   0.1589   1.0000
   6.750   1.2030   0.03548   0.02326  -0.1039   0.1461   1.0000
   7.000   1.2388   0.03753   0.02526  -0.1044   0.1378   1.0000
   7.250   1.2751   0.03978   0.02753  -0.1050   0.1319   1.0000
   7.500   1.3088   0.04267   0.03038  -0.1056   0.1261   1.0000
   7.750   1.3350   0.04523   0.03335  -0.1046   0.1230   1.0000
   8.000   1.3600   0.04830   0.03687  -0.1036   0.1221   1.0000
   8.250   1.3804   0.05164   0.04066  -0.1019   0.1215   1.0000
   8.500   1.3960   0.05508   0.04456  -0.0998   0.1205   1.0000
   8.750   1.4074   0.05875   0.04869  -0.0973   0.1196   1.0000
   9.000   1.4142   0.06290   0.05336  -0.0945   0.1204   1.0000
   9.250   1.4180   0.06755   0.05848  -0.0917   0.1227   1.0000
   9.500   1.4205   0.07258   0.06392  -0.0891   0.1251   1.0000
   9.750   1.4345   0.07827   0.06975  -0.0882   0.1278   1.0000
  10.000   1.3834   0.08306   0.07552  -0.0813   0.1327   1.0000
  10.250   1.3520   0.08898   0.08176  -0.0779   0.1362   1.0000
  10.500   1.3304   0.09456   0.08750  -0.0755   0.1393   1.0000
  10.750   1.3148   0.10051   0.09362  -0.0744   0.1438   1.0000
  11.000   1.2438   0.10953   0.10284  -0.0772   0.1454   1.0000
  11.250   1.1802   0.12590   0.11922  -0.0886   0.1542   1.0000
  11.500   1.0780   0.16666   0.15989  -0.1261   0.3163   1.0000
  11.750   1.0903   0.17290   0.16612  -0.1268   0.3149   1.0000
  12.000   1.0636   0.17480   0.16795  -0.1294   0.3049   1.0000
  12.250   1.0867   0.18070   0.17392  -0.1287   0.2997   1.0000
  12.500   1.0690   0.18331   0.17642  -0.1313   0.2920   1.0000
  12.750   1.0903   0.18876   0.18194  -0.1305   0.2838   1.0000
  13.000   1.0784   0.19154   0.18465  -0.1330   0.2772   1.0000
  13.250   1.0890   0.19586   0.18899  -0.1333   0.2694   1.0000
  13.500   1.1020   0.20184   0.19497  -0.1338   0.2652   1.0000
  13.750   1.0932   0.20329   0.19639  -0.1362   0.2558   1.0000
  14.000   1.1254   0.21208   0.20523  -0.1343   0.2501   1.0000
  14.250   1.1027   0.21098   0.20406  -0.1388   0.2423   1.0000
  14.500   1.1351   0.21990   0.21307  -0.1364   0.2341   1.0000
  14.750   1.1146   0.21850   0.21155  -0.1412   0.2272   1.0000
  15.000   1.1511   0.22878   0.22194  -0.1379   0.2185   1.0000
  15.250   1.1274   0.22603   0.21910  -0.1437   0.2128   1.0000
  15.500   1.1408   0.23064   0.22375  -0.1438   0.2054   1.0000
  15.750   1.1482   0.23550   0.22859  -0.1451   0.2015   1.0000
  16.000   1.1470   0.23694   0.23001  -0.1482   0.1936   1.0000
  16.250   1.1789   0.24815   0.24130  -0.1449   0.1875   1.0000
  16.500   1.1607   0.24462   0.23768  -0.1514   0.1832   1.0000
  16.750   1.1708   0.24843   0.24151  -0.1521   0.1754   1.0000
  17.000   1.1822   0.25430   0.24741  -0.1527   0.1712   1.0000
  17.250   1.1805   0.25483   0.24792  -0.1566   0.1640   1.0000
  17.500   1.2003   0.26233   0.25549  -0.1548   0.1581   1.0000
  17.750   1.1996   0.26409   0.25719  -0.1587   0.1556   1.0000
  18.000   1.2013   0.26545   0.25854  -0.1623   0.1496   1.0000
  18.250   1.2138   0.27037   0.26350  -0.1623   0.1445   1.0000
  18.500   1.2269   0.27781   0.27097  -0.1625   0.1418   1.0000
  18.750   1.2232   0.27633   0.26944  -0.1680   0.1381   1.0000
  19.000   1.2307   0.27949   0.27262  -0.1698   0.1323   1.0000
  19.250   1.2557   0.29312   0.28635  -0.1659   0.1275   1.0000
  19.500   1.2478   0.28838   0.28155  -0.1727   0.1259   1.0000
  19.750   1.2512   0.28961   0.28278  -0.1765   0.1211   1.0000
  20.000   1.2601   0.29334   0.28654  -0.1778   0.1166   1.0000
   0.000   0.0421   0.03828   0.03173  -0.0395   1.0000   0.5895
  -0.250   0.0259   0.04045   0.03385  -0.0412   1.0000   0.5392
  -0.500   0.0139   0.04277   0.03609  -0.0439   1.0000   0.4753
  -0.750   0.0075   0.04525   0.03844  -0.0479   1.0000   0.3958
  -1.000  -0.0019   0.04753   0.04061  -0.0506   1.0000   0.3294
  -1.250  -0.0165   0.04987   0.04288  -0.0517   1.0000   0.2932
  -1.500  -0.0373   0.05184   0.04487  -0.0508   1.0000   0.2615
  -1.750  -0.0627   0.05367   0.04678  -0.0484   1.0000   0.2339
  -2.000  -0.0820   0.05591   0.04903  -0.0477   1.0000   0.2155
  -2.250  -0.1032   0.05815   0.05131  -0.0461   1.0000   0.1998
  -2.500  -0.1293   0.06028   0.05352  -0.0428   1.0000   0.1875
  -2.750  -0.1361   0.06376   0.05690  -0.0452   1.0000   0.1822
  -3.000  -0.1689   0.06513   0.05844  -0.0392   1.0000   0.1703
  -3.250  -0.1701   0.06923   0.06241  -0.0431   1.0000   0.1668
  -3.500  -0.2054   0.07002   0.06338  -0.0353   1.0000   0.1554
  -3.750  -0.2052   0.07406   0.06730  -0.0396   1.0000   0.1523
  -4.000  -0.2394   0.07485   0.06824  -0.0304   1.0000   0.1450
  -4.250  -0.2493   0.07740   0.07076  -0.0305   1.0000   0.1408
  -4.500  -0.2516   0.08101   0.07429  -0.0337   1.0000   0.1384
  -4.750  -0.2635   0.08376   0.07703  -0.0318   1.0000   0.1366
  -5.000  -0.2823   0.08456   0.07786  -0.0258   1.0000   0.1319
  -5.250  -0.2907   0.08700   0.08024  -0.0252   1.0000   0.1281
  -5.500  -0.2968   0.09022   0.08340  -0.0267   1.0000   0.1253
  -5.750  -0.2964   0.09646   0.08954  -0.0332   1.0000   0.1235
  -6.000  -0.3137   0.09549   0.08853  -0.0237   1.0000   0.1214
  -6.250  -0.3217   0.09715   0.09012  -0.0211   1.0000   0.1180
  -6.500  -0.3284   0.09965   0.09255  -0.0204   1.0000   0.1152
  -6.750  -0.3352   0.10258   0.09543  -0.0205   1.0000   0.1129
  -7.000  -0.3434   0.10673   0.09956  -0.0218   1.0000   0.1109
  -7.250  -0.3532   0.11490   0.10768  -0.0267   1.0000   0.1095
  -7.500  -0.3568   0.11433   0.10703  -0.0217   1.0000   0.1090
  -7.750  -0.3557   0.11436   0.10693  -0.0193   1.0000   0.1080
  -8.000  -0.3529   0.11524   0.10771  -0.0191   1.0000   0.1066
  -8.250  -0.3540   0.11706   0.10946  -0.0189   1.0000   0.1047
  -8.500  -0.3574   0.11938   0.11172  -0.0187   1.0000   0.1027
  -8.750  -0.3625   0.12216   0.11446  -0.0186   1.0000   0.1003
  -9.000  -0.3703   0.12579   0.11806  -0.0188   1.0000   0.0981
  -9.250  -0.4018   0.13854   0.13091  -0.0205   1.0000   0.0957
  -9.500  -0.3938   0.13747   0.12972  -0.0194   1.0000   0.0955
  -9.750  -0.3894   0.13688   0.12904  -0.0179   1.0000   0.0950
 -10.000  -0.3895   0.13744   0.12953  -0.0166   1.0000   0.0942
 -10.250  -0.3924   0.13898   0.13103  -0.0154   1.0000   0.0928
 -10.500  -0.3970   0.14133   0.13334  -0.0145   1.0000   0.0910
 -10.750  -0.4026   0.14405   0.13603  -0.0137   1.0000   0.0893
 -11.000  -0.4088   0.14700   0.13896  -0.0131   1.0000   0.0876
 -11.250  -0.4157   0.15027   0.14221  -0.0125   1.0000   0.0861
 -11.500  -0.4245   0.15453   0.14648  -0.0123   1.0000   0.0845
 -11.500  -0.4245   0.15453   0.14648  -0.0123   1.0000   0.0845
 -11.600  -0.4294   0.15696   0.14892  -0.0124   1.0000   0.0840
 -11.700  -0.4402   0.16248   0.15448  -0.0132   1.0000   0.0832
 -12.000  -0.4460   0.16638   0.15831  -0.0120   1.0000   0.0826
 -12.250  -0.4443   0.16552   0.15740  -0.0100   1.0000   0.0822
 -12.500  -0.4462   0.16597   0.15781  -0.0083   1.0000   0.0812
 -12.750  -0.4510   0.16784   0.15966  -0.0069   1.0000   0.0797
 -13.000  -0.4570   0.17051   0.16231  -0.0058   1.0000   0.0780
 -13.250  -0.4636   0.17342   0.16521  -0.0048   1.0000   0.0765
 -13.500  -0.4706   0.17660   0.16839  -0.0039   1.0000   0.0750
 -13.750  -0.4783   0.18007   0.17187  -0.0031   1.0000   0.0738
 -14.000  -0.4878   0.18500   0.17680  -0.0027   1.0000   0.0725
 -14.000  -0.4878   0.18500   0.17680  -0.0027   1.0000   0.0725
 -14.100  -0.4931   0.18800   0.17981  -0.0027   1.0000   0.0721
 -14.200  -0.5058   0.19602   0.18788  -0.0035   1.0000   0.0716
 -14.500  -0.5061   0.19533   0.18711  -0.0012   1.0000   0.0713
 -14.750  -0.5078   0.19498   0.18673   0.0008   1.0000   0.0709
 -15.000  -0.5122   0.19581   0.18754   0.0027   1.0000   0.0702
 -15.250  -0.5183   0.19775   0.18947   0.0043   1.0000   0.0689
 -15.500  -0.5253   0.20039   0.19212   0.0057   1.0000   0.0672
 -15.750  -0.5327   0.20334   0.19507   0.0070   1.0000   0.0656
 -16.000  -0.5404   0.20651   0.19824   0.0081   1.0000   0.0643
 -16.250  -0.5485   0.21020   0.20193   0.0091   1.0000   0.0632
 -16.500  -0.5584   0.21576   0.20751   0.0097   1.0000   0.0621
 -16.500  -0.5584   0.21576   0.20751   0.0097   1.0000   0.0621
 -16.600  -0.5641   0.21972   0.21148   0.0097   1.0000   0.0618
 -17.000  -0.5735   0.22302   0.21474   0.0125   1.0000   0.0614
 -17.250  -0.5786   0.22344   0.21514   0.0146   1.0000   0.0609
 -17.500  -0.5854   0.22510   0.21679   0.0166   1.0000   0.0603
 -17.750  -0.5928   0.22747   0.21918   0.0183   1.0000   0.0592
 -18.000  -0.6005   0.23018   0.22189   0.0199   1.0000   0.0580
 -18.250  -0.6083   0.23308   0.22480   0.0215   1.0000   0.0567
 -18.500  -0.6163   0.23614   0.22786   0.0230   1.0000   0.0555
 -18.750  -0.6245   0.23973   0.23146   0.0242   1.0000   0.0542
 -19.000  -0.6336   0.24506   0.23681   0.0251   1.0000   0.0533
 -19.000  -0.6336   0.24506   0.23681   0.0251   1.0000   0.0533
 -19.100  -0.6390   0.25003   0.24180   0.0249   1.0000   0.0529
 -19.500  -0.6487   0.25134   0.24309   0.0285   1.0000   0.0526
 -19.750  -0.6556   0.25239   0.24413   0.0307   1.0000   0.0522
 -20.000  -0.6631   0.25431   0.24605   0.0328   1.0000   0.0516
