  
       XFOIL         Version 6.99
  
 Calculated polar for: SD8020-010-88                                   
  
 1 1 Reynolds number fixed          Mach number fixed         
  
 xtrf =   1.000 (top)        1.000 (bottom)  
 Mach =   0.000     Re =     0.050 e 6     Ncrit =   9.000
  
   alpha    CL        CD       CDp       CM     Top_Xtr  Bot_Xtr
  ------ -------- --------- --------- -------- -------- --------
   0.000  -0.0000   0.01801   0.00792   0.0000   1.0000   1.0000
   0.250  -0.0007   0.01806   0.00796   0.0038   1.0000   1.0000
   0.500  -0.0002   0.01820   0.00808   0.0073   1.0000   1.0000
   0.750   0.0020   0.01843   0.00828   0.0104   1.0000   1.0000
   1.000   0.0058   0.01874   0.00857   0.0132   1.0000   1.0000
   1.250   0.0105   0.01914   0.00895   0.0156   1.0000   1.0000
   1.500   0.0162   0.01963   0.00943   0.0176   1.0000   1.0000
   1.750   0.0228   0.02021   0.01001   0.0193   1.0000   1.0000
   2.000   0.0707   0.02127   0.01120   0.0130   0.9852   1.0000
   2.250   0.1642   0.02225   0.01248  -0.0007   0.9489   1.0000
   2.500   0.2652   0.02249   0.01312  -0.0143   0.9099   1.0000
   2.750   0.3722   0.02171   0.01284  -0.0267   0.8658   1.0000
   3.000   0.4354   0.02094   0.01234  -0.0302   0.8169   1.0000
   3.250   0.4731   0.02050   0.01198  -0.0290   0.7671   1.0000
   3.500   0.4969   0.02044   0.01190  -0.0257   0.7162   1.0000
   3.750   0.5173   0.02054   0.01189  -0.0222   0.6641   1.0000
   4.000   0.5360   0.02083   0.01203  -0.0187   0.6113   1.0000
   4.250   0.5547   0.02126   0.01224  -0.0154   0.5589   1.0000
   4.500   0.5725   0.02189   0.01270  -0.0124   0.5066   1.0000
   4.750   0.5908   0.02264   0.01322  -0.0097   0.4573   1.0000
   5.000   0.6093   0.02351   0.01386  -0.0072   0.4113   1.0000
   5.250   0.6276   0.02454   0.01475  -0.0049   0.3691   1.0000
   5.250   0.6276   0.02454   0.01475  -0.0049   0.3690   1.0000
   5.350   0.6351   0.02498   0.01510  -0.0041   0.3534   1.0000
   5.450   0.6428   0.02545   0.01552  -0.0032   0.3387   1.0000
   5.750   0.6650   0.02695   0.01697  -0.0008   0.2975   1.0000
   6.000   0.6842   0.02836   0.01834   0.0011   0.2682   1.0000
   6.250   0.7029   0.02992   0.01991   0.0029   0.2420   1.0000
   6.500   0.7220   0.03151   0.02139   0.0047   0.2181   1.0000
   6.750   0.7386   0.03341   0.02353   0.0067   0.1971   1.0000
   7.000   0.7569   0.03525   0.02537   0.0084   0.1783   1.0000
   7.250   0.7744   0.03747   0.02761   0.0100   0.1626   1.0000
   7.500   0.7853   0.04029   0.03099   0.0124   0.1521   1.0000
   7.750   0.7956   0.04345   0.03450   0.0145   0.1436   1.0000
   8.000   0.8131   0.04595   0.03690   0.0158   0.1339   1.0000
   8.250   0.8130   0.05015   0.04176   0.0182   0.1320   1.0000
   8.500   0.8089   0.05475   0.04687   0.0203   0.1311   1.0000
   8.750   0.8003   0.05956   0.05206   0.0219   0.1308   1.0000
   9.000   0.7878   0.06455   0.05732   0.0229   0.1311   1.0000
   9.250   0.7743   0.06963   0.06255   0.0234   0.1321   1.0000
   9.500   0.7589   0.07483   0.06784   0.0234   0.1330   1.0000
   9.750   0.7460   0.07992   0.07298   0.0232   0.1346   1.0000
   9.750   0.7460   0.07992   0.07298   0.0232   0.1346   1.0000
  10.250   0.4785   0.11276   0.10576  -0.0080   0.3211   1.0000
  10.500   0.4643   0.11521   0.10816  -0.0085   0.3112   1.0000
  10.750   0.5866   0.12455   0.11707  -0.0156   0.2899   1.0000
  11.000   0.6086   0.12998   0.12255  -0.0148   0.2776   1.0000
  11.250   0.5873   0.13135   0.12382  -0.0168   0.2698   1.0000
  11.500   0.6080   0.13713   0.12965  -0.0164   0.2626   1.0000
  11.750   0.5947   0.13882   0.13128  -0.0181   0.2544   1.0000
  12.000   0.6041   0.14329   0.13575  -0.0184   0.2463   1.0000
  12.250   0.6277   0.14921   0.14174  -0.0174   0.2340   1.0000
  12.500   0.6069   0.14981   0.14222  -0.0202   0.2288   1.0000
  12.750   0.6300   0.15573   0.14824  -0.0194   0.2203   1.0000
  13.000   0.6182   0.15752   0.14995  -0.0218   0.2165   1.0000
  13.250   0.6259   0.16119   0.15363  -0.0224   0.2079   1.0000
  13.500   0.6314   0.16538   0.15779  -0.0234   0.2033   1.0000
  13.750   0.6343   0.16805   0.16046  -0.0244   0.1941   1.0000
  14.000   0.6433   0.17275   0.16514  -0.0252   0.1893   1.0000
  14.250   0.6414   0.17466   0.16702  -0.0271   0.1820   1.0000
  14.500   0.6718   0.18364   0.17608  -0.0258   0.1765   1.0000
  14.750   0.6551   0.18243   0.17477  -0.0293   0.1738   1.0000
  15.000   0.6589   0.18514   0.17748  -0.0309   0.1676   1.0000
  15.250   0.6828   0.19322   0.18560  -0.0301   0.1620   1.0000
  15.500   0.6726   0.19258   0.18488  -0.0334   0.1592   1.0000
  15.750   0.6785   0.19542   0.18773  -0.0349   0.1528   1.0000
  16.000   0.6994   0.20321   0.19558  -0.0343   0.1478   1.0000
  16.250   0.6917   0.20250   0.19479  -0.0378   0.1445   1.0000
  16.500   0.6979   0.20537   0.19767  -0.0394   0.1397   1.0000
  16.750   0.7141   0.21121   0.20355  -0.0393   0.1353   1.0000
  17.000   0.7228   0.21609   0.20841  -0.0407   0.1336   1.0000
  17.250   0.7196   0.21580   0.20806  -0.0440   0.1305   1.0000
  17.500   0.7262   0.21863   0.21089  -0.0458   0.1259   1.0000
  17.750   0.7412   0.22425   0.21654  -0.0458   0.1216   1.0000
  18.000   0.7507   0.22943   0.22170  -0.0472   0.1197   1.0000
  18.250   0.7488   0.22880   0.22103  -0.0506   0.1168   1.0000
  18.500   0.7556   0.23144   0.22367  -0.0525   0.1128   1.0000
  18.750   0.7677   0.23602   0.22830  -0.0531   0.1085   1.0000
  19.000   0.7865   0.24594   0.23824  -0.0528   0.1065   1.0000
  19.250   0.7836   0.24383   0.23608  -0.0565   0.1056   1.0000
  19.500   0.7866   0.24457   0.23680  -0.0595   0.1030   1.0000
  19.750   0.7937   0.24729   0.23952  -0.0615   0.0997   1.0000
  20.000   0.8028   0.25074   0.24297  -0.0629   0.0967   1.0000
   0.000  -0.0000   0.01801   0.00792   0.0000   1.0000   1.0000
  -0.250   0.0007   0.01806   0.00796  -0.0038   1.0000   1.0000
  -0.500   0.0002   0.01820   0.00808  -0.0073   1.0000   1.0000
  -0.750  -0.0021   0.01843   0.00828  -0.0104   1.0000   1.0000
  -1.000  -0.0057   0.01874   0.00858  -0.0132   1.0000   1.0000
  -1.250  -0.0104   0.01914   0.00896  -0.0156   1.0000   1.0000
  -1.500  -0.0161   0.01963   0.00944  -0.0176   1.0000   1.0000
  -1.750  -0.0227   0.02021   0.01002  -0.0193   1.0000   1.0000
  -2.000  -0.0710   0.02128   0.01122  -0.0130   1.0000   0.9851
  -2.250  -0.1644   0.02226   0.01248   0.0008   1.0000   0.9488
  -2.500  -0.2652   0.02250   0.01313   0.0143   1.0000   0.9097
  -2.750  -0.3721   0.02171   0.01284   0.0267   1.0000   0.8655
  -3.000  -0.4356   0.02094   0.01234   0.0303   1.0000   0.8168
  -3.250  -0.4733   0.02051   0.01198   0.0290   1.0000   0.7670
  -3.500  -0.4970   0.02044   0.01190   0.0258   1.0000   0.7160
  -3.750  -0.5175   0.02054   0.01190   0.0222   1.0000   0.6641
  -4.000  -0.5362   0.02083   0.01204   0.0187   1.0000   0.6113
  -4.250  -0.5549   0.02126   0.01224   0.0155   1.0000   0.5588
  -4.500  -0.5726   0.02189   0.01271   0.0125   1.0000   0.5065
  -4.750  -0.5910   0.02264   0.01322   0.0097   1.0000   0.4571
  -5.000  -0.6094   0.02352   0.01386   0.0072   1.0000   0.4112
  -5.250  -0.6277   0.02455   0.01475   0.0050   1.0000   0.3689
  -5.500  -0.6465   0.02572   0.01583   0.0029   1.0000   0.3315
  -5.750  -0.6652   0.02695   0.01698   0.0009   1.0000   0.2976
  -6.000  -0.6844   0.02838   0.01836  -0.0010   1.0000   0.2685
  -6.250  -0.7031   0.02993   0.01992  -0.0029   1.0000   0.2422
  -6.500  -0.7222   0.03150   0.02139  -0.0046   1.0000   0.2183
  -6.750  -0.7387   0.03341   0.02354  -0.0067   1.0000   0.1972
  -7.000  -0.7569   0.03526   0.02538  -0.0084   1.0000   0.1784
  -7.250  -0.7745   0.03746   0.02759  -0.0100   1.0000   0.1624
  -7.500  -0.7855   0.04025   0.03093  -0.0124   1.0000   0.1518
  -7.750  -0.7955   0.04342   0.03447  -0.0145   1.0000   0.1435
  -8.000  -0.8129   0.04594   0.03689  -0.0158   1.0000   0.1338
  -8.250  -0.8126   0.05016   0.04178  -0.0183   1.0000   0.1319
  -8.500  -0.8082   0.05475   0.04688  -0.0204   1.0000   0.1309
  -8.750  -0.7997   0.05954   0.05204  -0.0220   1.0000   0.1306
  -9.000  -0.7871   0.06454   0.05731  -0.0230   1.0000   0.1311
  -9.250  -0.7721   0.06964   0.06257  -0.0235   1.0000   0.1319
  -9.500  -0.7587   0.07478   0.06779  -0.0235   1.0000   0.1330
  -9.750  -0.7451   0.07987   0.07293  -0.0233   1.0000   0.1346
  -9.750  -0.7451   0.07987   0.07293  -0.0233   1.0000   0.1346
  -9.850  -0.7422   0.08186   0.07492  -0.0233   1.0000   0.1343
 -10.250  -0.6003   0.11862   0.11125   0.0137   1.0000   0.3070
 -10.500  -0.5758   0.12028   0.11279   0.0155   1.0000   0.3010
 -10.750  -0.5832   0.12429   0.11680   0.0155   1.0000   0.2891
 -11.000  -0.6075   0.12992   0.12250   0.0146   1.0000   0.2776
 -11.250  -0.5861   0.13127   0.12375   0.0166   1.0000   0.2699
 -11.500  -0.6074   0.13709   0.12961   0.0162   1.0000   0.2626
 -11.750  -0.5936   0.13875   0.13121   0.0179   1.0000   0.2543
 -12.000  -0.6032   0.14323   0.13568   0.0181   1.0000   0.2464
 -12.250  -0.6274   0.14920   0.14175   0.0171   1.0000   0.2340
 -12.500  -0.6057   0.14972   0.14213   0.0199   1.0000   0.2289
 -12.750  -0.6298   0.15582   0.14834   0.0191   1.0000   0.2202
 -13.000  -0.6166   0.15739   0.14981   0.0216   1.0000   0.2163
 -13.250  -0.6233   0.16087   0.15330   0.0223   1.0000   0.2084
 -13.500  -0.6293   0.16512   0.15753   0.0232   1.0000   0.2031
 -13.750  -0.6315   0.16772   0.16012   0.0244   1.0000   0.1947
 -14.000  -0.6429   0.17275   0.16515   0.0249   1.0000   0.1895
 -14.250  -0.6399   0.17446   0.16683   0.0269   1.0000   0.1823
 -14.500  -0.6704   0.18344   0.17588   0.0256   1.0000   0.1765
 -14.750  -0.6543   0.18232   0.17466   0.0290   1.0000   0.1740
 -15.000  -0.6575   0.18491   0.17724   0.0306   1.0000   0.1677
 -15.250  -0.6833   0.19342   0.18580   0.0297   1.0000   0.1621
 -15.500  -0.6715   0.19234   0.18465   0.0331   1.0000   0.1592
 -15.750  -0.6778   0.19526   0.18760   0.0345   1.0000   0.1523
 -16.000  -0.6978   0.20283   0.19519   0.0340   1.0000   0.1478
 -16.250  -0.6908   0.20227   0.19457   0.0374   1.0000   0.1449
 -16.500  -0.6966   0.20507   0.19736   0.0391   1.0000   0.1397
 -16.750  -0.7129   0.21088   0.20322   0.0390   1.0000   0.1353
 -17.000  -0.7220   0.21585   0.20817   0.0404   1.0000   0.1336
 -17.250  -0.7184   0.21544   0.20770   0.0437   1.0000   0.1307
 -17.500  -0.7248   0.21819   0.21044   0.0455   1.0000   0.1261
 -17.750  -0.7385   0.22324   0.21552   0.0458   1.0000   0.1219
 -18.000  -0.7498   0.22910   0.22138   0.0468   1.0000   0.1197
 -18.250  -0.7479   0.22837   0.22060   0.0503   1.0000   0.1172
 -18.500  -0.7543   0.23089   0.22311   0.0522   1.0000   0.1126
 -18.750  -0.7662   0.23539   0.22766   0.0529   1.0000   0.1086
 -19.000  -0.7857   0.24550   0.23781   0.0525   1.0000   0.1065
 -19.250  -0.7824   0.24322   0.23547   0.0562   1.0000   0.1056
 -19.500  -0.7853   0.24387   0.23610   0.0592   1.0000   0.1031
 -19.750  -0.7923   0.24649   0.23871   0.0612   1.0000   0.0999
 -20.000  -0.8014   0.24994   0.24217   0.0626   1.0000   0.0967
