  
       XFOIL         Version 6.99
  
 Calculated polar for: MH 91  14.98%                                   
  
 1 1 Reynolds number fixed          Mach number fixed         
  
 xtrf =   1.000 (top)        1.000 (bottom)  
 Mach =   0.000     Re =     0.050 e 6     Ncrit =   9.000
  
   alpha    CL        CD       CDp       CM     Top_Xtr  Bot_Xtr
  ------ -------- --------- --------- -------- -------- --------
   0.000   0.3832   0.02975   0.02025  -0.0428   0.6901   1.0000
   0.250   0.3978   0.02997   0.02040  -0.0412   0.6753   1.0000
   0.500   0.4120   0.03003   0.02033  -0.0389   0.6629   1.0000
   0.750   0.4282   0.03044   0.02072  -0.0380   0.6476   1.0000
   1.000   0.4441   0.03093   0.02119  -0.0370   0.6327   1.0000
   1.250   0.4600   0.03142   0.02164  -0.0358   0.6192   1.0000
   1.500   0.4760   0.03146   0.02156  -0.0334   0.6091   1.0000
   1.750   0.4920   0.03225   0.02239  -0.0328   0.5947   1.0000
   2.000   0.5073   0.03306   0.02320  -0.0319   0.5817   1.0000
   2.250   0.5248   0.03303   0.02305  -0.0294   0.5731   1.0000
   2.500   0.5384   0.03427   0.02438  -0.0290   0.5593   1.0000
   2.750   0.5519   0.03531   0.02544  -0.0279   0.5480   1.0000
   3.000   0.5689   0.03560   0.02565  -0.0258   0.5390   1.0000
   3.250   0.5774   0.03738   0.02753  -0.0251   0.5270   1.0000
   3.500   0.5980   0.03719   0.02723  -0.0225   0.5198   1.0000
   3.750   0.5988   0.03979   0.02999  -0.0219   0.5077   1.0000
   4.000   0.6158   0.04020   0.03034  -0.0198   0.5002   1.0000
   4.250   0.6108   0.04302   0.03328  -0.0185   0.4897   1.0000
   4.500   0.6284   0.04343   0.03363  -0.0162   0.4827   1.0000
   4.750   0.5970   0.04826   0.03860  -0.0143   0.4735   1.0000
   5.000   0.6350   0.04701   0.03729  -0.0121   0.4672   1.0000
   5.250   0.5510   0.05526   0.04559  -0.0087   0.4608   1.0000
   5.500   0.4978   0.06015   0.05037  -0.0049   0.4573   1.0000
   5.750   0.4854   0.06271   0.05286  -0.0023   0.4533   1.0000
   6.000   0.5012   0.06425   0.05438  -0.0010   0.4479   1.0000
   6.250   0.4677   0.06856   0.05860   0.0008   0.4473   1.0000
   6.500   0.4495   0.07233   0.06232   0.0015   0.4468   1.0000
   6.750   0.4380   0.07629   0.06626   0.0013   0.4510   1.0000
   6.750   0.4454   0.07580   0.06576   0.0016   0.4477   1.0000
   6.850   0.4496   0.07708   0.06705   0.0014   0.4485   1.0000
   6.950   0.4535   0.07841   0.06838   0.0012   0.4491   1.0000
   8.000   0.3836   0.09874   0.08872  -0.0061   0.5370   1.0000
   7.750   0.3475   0.09409   0.08404  -0.0045   0.5442   1.0000
   7.850   0.3585   0.09542   0.08537  -0.0049   0.5407   1.0000
   7.950   0.3774   0.09762   0.08760  -0.0058   0.5380   1.0000
   8.250   0.3698   0.09896   0.08892  -0.0044   0.5246   1.0000
   8.000   0.3836   0.09874   0.08872  -0.0061   0.5370   1.0000
   8.100   0.3621   0.09770   0.08764  -0.0045   0.5322   1.0000
   8.200   0.3649   0.09835   0.08830  -0.0043   0.5268   1.0000
   8.500   0.3844   0.10210   0.09206  -0.0048   0.5169   1.0000
   8.250   0.3698   0.09896   0.08892  -0.0044   0.5246   1.0000
   8.350   0.3868   0.10085   0.09082  -0.0051   0.5212   1.0000
   8.450   0.3964   0.10270   0.09268  -0.0055   0.5189   1.0000
   8.750   0.3945   0.10419   0.09417  -0.0046   0.5050   1.0000
   9.000   0.3979   0.10667   0.09666  -0.0045   0.4975   1.0000
   9.250   0.4192   0.10974   0.09977  -0.0049   0.4861   1.0000
   9.500   0.4134   0.11135   0.10137  -0.0044   0.4764   1.0000
   9.750   0.4427   0.11552   0.10560  -0.0053   0.4678   1.0000
  10.000   0.4309   0.11661   0.10667  -0.0048   0.4583   1.0000
  10.250   0.4700   0.12203   0.11218  -0.0060   0.4495   1.0000
  10.500   0.4495   0.12196   0.11208  -0.0053   0.4390   1.0000
  10.750   0.4876   0.12776   0.11797  -0.0064   0.4320   1.0000
  11.000   0.4661   0.12748   0.11766  -0.0060   0.4216   1.0000
  11.250   0.5041   0.13358   0.12385  -0.0070   0.4143   1.0000
  11.500   0.4829   0.13311   0.12336  -0.0069   0.4040   1.0000
  11.750   0.5202   0.13931   0.12966  -0.0078   0.3974   1.0000
  12.000   0.4979   0.13882   0.12914  -0.0080   0.3880   1.0000
  12.250   0.5344   0.14493   0.13536  -0.0086   0.3804   1.0000
  12.500   0.5135   0.14465   0.13503  -0.0092   0.3724   1.0000
  12.750   0.5359   0.14888   0.13935  -0.0097   0.3647   1.0000
  13.000   0.5312   0.15086   0.14133  -0.0107   0.3583   1.0000
  13.250   0.5455   0.15402   0.14454  -0.0112   0.3490   1.0000
  13.500   0.5609   0.15883   0.14939  -0.0121   0.3450   1.0000
  13.750   0.5534   0.15934   0.14991  -0.0131   0.3360   1.0000
  14.000   0.5860   0.16591   0.15660  -0.0135   0.3296   1.0000
  14.250   0.5688   0.16542   0.15608  -0.0151   0.3232   1.0000
  14.500   0.5820   0.16872   0.15943  -0.0158   0.3159   1.0000
  14.750   0.6054   0.17509   0.16587  -0.0165   0.3120   1.0000
  15.000   0.5918   0.17420   0.16497  -0.0183   0.3041   1.0000
  15.250   0.6124   0.17882   0.16969  -0.0187   0.2975   1.0000
  15.500   0.6178   0.18228   0.17317  -0.0201   0.2944   1.0000
  15.750   0.6159   0.18316   0.17406  -0.0218   0.2865   1.0000
  16.000   0.6389   0.18862   0.17962  -0.0221   0.2806   1.0000
  16.250   0.6366   0.19038   0.18137  -0.0241   0.2770   1.0000
  16.500   0.6400   0.19214   0.18317  -0.0257   0.2699   1.0000
  16.750   0.6623   0.19786   0.18898  -0.0260   0.2644   1.0000
  17.000   0.6607   0.19950   0.19062  -0.0281   0.2610   1.0000
  17.250   0.6640   0.20113   0.19228  -0.0299   0.2540   1.0000
  17.500   0.6830   0.20631   0.19756  -0.0304   0.2488   1.0000
  17.750   0.6866   0.20916   0.20042  -0.0323   0.2457   1.0000
  18.000   0.6877   0.21014   0.20142  -0.0344   0.2388   1.0000
  18.250   0.7039   0.21470   0.20607  -0.0351   0.2336   1.0000
  18.500   0.7143   0.21945   0.21085  -0.0366   0.2308   1.0000
  18.750   0.7115   0.21921   0.21061  -0.0392   0.2245   1.0000
  19.000   0.7246   0.22304   0.21451  -0.0402   0.2191   1.0000
  19.250   0.7427   0.23024   0.22179  -0.0409   0.2159   1.0000
  19.500   0.7357   0.22842   0.21995  -0.0443   0.2108   1.0000
  19.750   0.7460   0.23159   0.22317  -0.0457   0.2053   1.0000
  20.000   0.7730   0.24217   0.23387  -0.0453   0.2013   1.0000
   0.000   0.3832   0.02975   0.02025  -0.0428   0.6901   1.0000
  -0.250   0.3687   0.02952   0.02009  -0.0442   0.7060   1.0000
  -0.500   0.3547   0.02935   0.01998  -0.0457   0.7226   1.0000
  -0.750   0.3412   0.02922   0.01994  -0.0473   0.7399   1.0000
  -1.000   0.3283   0.02914   0.01994  -0.0490   0.7577   1.0000
  -1.250   0.3157   0.02909   0.01999  -0.0506   0.7760   1.0000
  -1.500   0.3041   0.02909   0.02008  -0.0525   0.7954   1.0000
  -1.750   0.2756   0.02965   0.02076  -0.0514   0.8178   0.9916
  -2.000   0.2290   0.03064   0.02188  -0.0470   0.8439   0.9724
  -2.250   0.1825   0.03155   0.02296  -0.0433   0.8680   0.9529
  -2.500   0.1339   0.03232   0.02389  -0.0389   0.8948   0.9323
  -2.750   0.0516   0.03362   0.02542  -0.0289   0.9176   0.9107
  -3.000  -0.0462   0.03477   0.02685  -0.0160   0.9383   0.8865
  -3.250  -0.1723   0.03556   0.02803   0.0013   0.9549   0.8591
  -3.500  -0.3012   0.03530   0.02825   0.0181   0.9708   0.8278
  -3.750  -0.4639   0.03258   0.02623   0.0368   0.9837   0.7894
  -4.000  -0.5796   0.02712   0.02123   0.0429   0.9983   0.7269
  -4.250  -0.5986   0.02519   0.01930   0.0381   1.0000   0.6759
  -4.500  -0.6061   0.02417   0.01818   0.0327   1.0000   0.6214
  -4.750  -0.6095   0.02358   0.01734   0.0270   1.0000   0.5513
  -5.000  -0.6030   0.02365   0.01686   0.0203   1.0000   0.4431
  -5.250  -0.5850   0.02515   0.01712   0.0129   1.0000   0.2971
  -5.500  -0.5767   0.02691   0.01800   0.0078   1.0000   0.2193
  -5.750  -0.5799   0.02829   0.01899   0.0043   1.0000   0.1813
  -6.000  -0.5905   0.02966   0.02004   0.0017   1.0000   0.1581
  -6.250  -0.6061   0.03105   0.02129  -0.0004   1.0000   0.1422
  -6.500  -0.6242   0.03257   0.02269  -0.0020   1.0000   0.1306
  -6.750  -0.6419   0.03422   0.02449  -0.0039   1.0000   0.1231
  -7.000  -0.6646   0.03640   0.02646  -0.0046   1.0000   0.1153
  -7.250  -0.6814   0.03843   0.02890  -0.0065   1.0000   0.1122
  -7.500  -0.6988   0.04087   0.03167  -0.0080   1.0000   0.1095
  -7.750  -0.7150   0.04340   0.03445  -0.0095   1.0000   0.1071
  -8.000  -0.7320   0.04603   0.03721  -0.0106   1.0000   0.1045
  -8.250  -0.7502   0.04958   0.04076  -0.0111   1.0000   0.1023
  -8.500  -0.7592   0.05270   0.04424  -0.0129   1.0000   0.1025
  -8.750  -0.7466   0.05612   0.04847  -0.0163   1.0000   0.1052
  -9.000  -0.7331   0.06054   0.05336  -0.0186   1.0000   0.1080
  -9.250  -0.7192   0.06490   0.05802  -0.0202   1.0000   0.1105
  -9.500  -0.7084   0.06933   0.06260  -0.0212   1.0000   0.1128
  -9.750  -0.7204   0.07409   0.06733  -0.0211   1.0000   0.1152
 -10.000  -0.6226   0.08103   0.07464  -0.0192   1.0000   0.1204
 -10.250  -0.5915   0.08978   0.08338  -0.0136   1.0000   0.1267
 -10.500  -0.5371   0.10729   0.10084   0.0011   1.0000   0.1626
 -10.750  -0.4919   0.12746   0.12099   0.0193   1.0000   0.2921
 -11.000  -0.4699   0.12944   0.12285   0.0217   1.0000   0.2848
 -11.250  -0.4867   0.13361   0.12702   0.0219   1.0000   0.2769
 -11.500  -0.4847   0.13716   0.13050   0.0233   1.0000   0.2707
 -11.750  -0.4976   0.14087   0.13420   0.0236   1.0000   0.2601
 -12.000  -0.5041   0.14519   0.13847   0.0247   1.0000   0.2558
 -12.250  -0.5003   0.14735   0.14058   0.0263   1.0000   0.2463
 -12.750  -0.5104   0.15442   0.14757   0.0287   1.0000   0.2341
 -13.000  -0.5274   0.15879   0.15195   0.0290   1.0000   0.2268
 -13.250  -0.5380   0.16354   0.15665   0.0301   1.0000   0.2230
 -13.500  -0.5309   0.16467   0.15773   0.0323   1.0000   0.2148
 -13.750  -0.5738   0.17384   0.16695   0.0306   1.0000   0.2079
 -14.000  -0.5468   0.17192   0.16491   0.0347   1.0000   0.2035
 -14.250  -0.5557   0.17503   0.16800   0.0358   1.0000   0.1960
 -14.500  -0.5814   0.18222   0.17519   0.0355   1.0000   0.1910
 -14.750  -0.5676   0.18148   0.17437   0.0390   1.0000   0.1851
 -15.000  -0.5827   0.18555   0.17845   0.0395   1.0000   0.1783
 -14.750  -0.5676   0.18148   0.17437   0.0390   1.0000   0.1851
 -14.850  -0.5711   0.18269   0.17558   0.0395   1.0000   0.1821
 -14.950  -0.5780   0.18441   0.17730   0.0396   1.0000   0.1794
 -15.250  -0.6035   0.19245   0.18532   0.0397   1.0000   0.1750
 -15.500  -0.5919   0.19142   0.18423   0.0434   1.0000   0.1705
 -15.750  -0.6014   0.19459   0.18738   0.0447   1.0000   0.1645
 -16.000  -0.6318   0.20335   0.19618   0.0437   1.0000   0.1602
 -16.250  -0.6241   0.20318   0.19592   0.0472   1.0000   0.1583
 -16.500  -0.6239   0.20410   0.19680   0.0500   1.0000   0.1533
 -16.750  -0.6349   0.20751   0.20020   0.0512   1.0000   0.1485
 -17.000  -0.6649   0.21728   0.21002   0.0501   1.0000   0.1447
 -17.250  -0.6593   0.21670   0.20935   0.0536   1.0000   0.1434
 -17.500  -0.6580   0.21678   0.20939   0.0569   1.0000   0.1392
 -17.750  -0.6671   0.21972   0.21231   0.0586   1.0000   0.1350
 -18.000  -0.6827   0.22457   0.21716   0.0591   1.0000   0.1314
 -18.250  -0.7028   0.23293   0.22553   0.0593   1.0000   0.1294
 -18.500  -0.6956   0.23015   0.22268   0.0636   1.0000   0.1274
 -18.750  -0.7010   0.23182   0.22433   0.0661   1.0000   0.1231
 -19.000  -0.7116   0.23505   0.22755   0.0676   1.0000   0.1194
 -19.250  -0.7315   0.24239   0.23491   0.0673   1.0000   0.1162
 -19.500  -0.7396   0.24614   0.23862   0.0694   1.0000   0.1150
 -19.750  -0.7378   0.24451   0.23694   0.0733   1.0000   0.1129
 -20.000  -0.7447   0.24654   0.23897   0.0757   1.0000   0.1093
