  
       XFOIL         Version 6.99
  
 Calculated polar for: AH 83-159                                       
  
 1 1 Reynolds number fixed          Mach number fixed         
  
 xtrf =   1.000 (top)        1.000 (bottom)  
 Mach =   0.000     Re =     0.050 e 6     Ncrit =   9.000
  
   alpha    CL        CD       CDp       CM     Top_Xtr  Bot_Xtr
  ------ -------- --------- --------- -------- -------- --------
   0.000  -0.1888   0.04331   0.03439  -0.0092   1.0000   1.0000
   0.250  -0.1815   0.04340   0.03428  -0.0072   1.0000   1.0000
   0.500  -0.1739   0.04350   0.03419  -0.0053   1.0000   1.0000
   0.750  -0.1661   0.04364   0.03416  -0.0035   1.0000   1.0000
   1.000  -0.1580   0.04381   0.03416  -0.0018   1.0000   1.0000
   1.250  -0.1492   0.04403   0.03423  -0.0002   1.0000   1.0000
   1.500  -0.1393   0.04434   0.03438   0.0012   1.0000   1.0000
   1.750  -0.1281   0.04476   0.03465   0.0022   1.0000   1.0000
   2.000  -0.1158   0.04527   0.03502   0.0030   1.0000   1.0000
   2.250  -0.1024   0.04589   0.03551   0.0036   1.0000   1.0000
   2.250  -0.1024   0.04589   0.03551   0.0036   1.0000   1.0000
   2.350  -0.0967   0.04616   0.03573   0.0038   1.0000   1.0000
   2.450  -0.0830   0.04701   0.03650   0.0023   0.9967   1.0000
   2.500  -0.0759   0.04751   0.03697   0.0015   0.9953   1.0000
   2.600  -0.0641   0.04822   0.03761   0.0004   0.9920   1.0000
   2.700  -0.0502   0.04908   0.03842  -0.0011   0.9873   1.0000
   2.750  -0.0426   0.04965   0.03895  -0.0019   0.9856   1.0000
   2.850  -0.0310   0.05044   0.03969  -0.0029   0.9821   1.0000
   2.950  -0.0190   0.05104   0.04023  -0.0040   0.9761   1.0000
   3.250   0.0163   0.05328   0.04233  -0.0071   0.9621   1.0000
   3.500   0.0428   0.05498   0.04394  -0.0092   0.9501   1.0000
   3.750   0.0699   0.05693   0.04580  -0.0113   0.9397   1.0000
   4.000   0.1034   0.05959   0.04837  -0.0145   0.9292   1.0000
   4.250   0.1245   0.06078   0.04952  -0.0154   0.9162   1.0000
   4.250   0.1245   0.06078   0.04952  -0.0154   0.9162   1.0000
   4.350   0.1293   0.06111   0.04984  -0.0152   0.9123   1.0000
   4.450   0.1371   0.06147   0.05019  -0.0155   0.9059   1.0000
   4.750   0.1636   0.06346   0.05214  -0.0169   0.8924   1.0000
   5.000   0.1870   0.06543   0.05409  -0.0184   0.8829   1.0000
   5.250   0.2186   0.06814   0.05678  -0.0212   0.8722   1.0000
   5.500   0.2326   0.06905   0.05770  -0.0211   0.8599   1.0000
   5.750   0.2487   0.07046   0.05912  -0.0214   0.8484   1.0000
   6.000   0.2704   0.07258   0.06126  -0.0227   0.8393   1.0000
   6.250   0.3004   0.07530   0.06400  -0.0252   0.8285   1.0000
   6.500   0.3110   0.07625   0.06499  -0.0248   0.8164   1.0000
   6.750   0.3256   0.07790   0.06668  -0.0252   0.8058   1.0000
   7.000   0.3553   0.08102   0.06986  -0.0277   0.7973   1.0000
   7.250   0.3716   0.08256   0.07146  -0.0282   0.7848   1.0000
   7.500   0.3815   0.08393   0.07289  -0.0280   0.7733   1.0000
   7.750   0.3984   0.08615   0.07517  -0.0289   0.7641   1.0000
   8.000   0.4327   0.08974   0.07887  -0.0319   0.7535   1.0000
   8.250   0.4375   0.09061   0.07981  -0.0311   0.7412   1.0000
   8.500   0.4470   0.09239   0.08168  -0.0312   0.7306   1.0000
   8.750   0.4675   0.09517   0.08455  -0.0327   0.7216   1.0000
   9.000   0.4974   0.09844   0.08796  -0.0350   0.7095   1.0000
   9.250   0.4997   0.09956   0.08917  -0.0343   0.6975   1.0000
   9.500   0.5089   0.10160   0.09130  -0.0346   0.6863   1.0000
   9.750   0.5248   0.10427   0.09409  -0.0356   0.6763   1.0000
  10.000   0.5485   0.10735   0.09731  -0.0373   0.6646   1.0000
  10.250   0.5720   0.11030   0.10041  -0.0388   0.6511   1.0000
  10.500   0.5786   0.11206   0.10230  -0.0389   0.6379   1.0000
  10.750   0.5847   0.11417   0.10452  -0.0391   0.6256   1.0000
  11.000   0.5961   0.11664   0.10712  -0.0398   0.6124   1.0000
  11.250   0.6084   0.11923   0.10984  -0.0406   0.5990   1.0000
  11.500   0.6416   0.12219   0.11302  -0.0422   0.5787   1.0000
  11.750   0.6503   0.12450   0.11547  -0.0426   0.5636   1.0000
  12.000   0.7323   0.11644   0.10773  -0.0384   0.4714   1.0000
  12.250   0.7838   0.11533   0.10694  -0.0382   0.4484   1.0000
  12.500   0.7867   0.11778   0.10952  -0.0381   0.4314   1.0000
  12.750   0.7978   0.11956   0.11148  -0.0379   0.4126   1.0000
  13.000   0.8494   0.11650   0.10881  -0.0361   0.3893   1.0000
  13.250   0.8469   0.11964   0.11207  -0.0361   0.3705   1.0000
  13.500   0.8987   0.11439   0.10722  -0.0328   0.3438   1.0000
  13.750   1.1454   0.06636   0.05875  -0.0109   0.2007   1.0000
  14.000   1.1426   0.06957   0.06168  -0.0095   0.1702   1.0000
  14.250   1.1521   0.07211   0.06395  -0.0082   0.1427   1.0000
  14.500   1.1731   0.07420   0.06582  -0.0071   0.1203   1.0000
  14.750   1.1996   0.07682   0.06841  -0.0064   0.1046   1.0000
  15.000   1.1959   0.08087   0.07285  -0.0059   0.0983   1.0000
  15.250   1.2144   0.08446   0.07653  -0.0055   0.0911   1.0000
  15.500   1.2012   0.08939   0.08188  -0.0055   0.0893   1.0000
  15.750   1.1858   0.09470   0.08754  -0.0058   0.0879   1.0000
  16.000   1.1676   0.10044   0.09359  -0.0067   0.0874   1.0000
  16.250   1.1442   0.10700   0.10045  -0.0084   0.0876   1.0000
  16.500   1.1171   0.11450   0.10822  -0.0111   0.0887   1.0000
  16.750   1.0893   0.12274   0.11667  -0.0147   0.0901   1.0000
  17.000   1.0622   0.13169   0.12576  -0.0192   0.0914   1.0000
  17.250   1.0418   0.14048   0.13463  -0.0236   0.0925   1.0000
  17.250   1.0331   0.14206   0.13626  -0.0249   0.0937   1.0000
  17.350   1.0320   0.14451   0.13872  -0.0258   0.0931   1.0000
