  
       XFOIL         Version 6.99
  
 Calculated polar for: EH 2.0/10                                       
  
 1 1 Reynolds number fixed          Mach number fixed         
  
 xtrf =   1.000 (top)        1.000 (bottom)  
 Mach =   0.000     Re =     0.050 e 6     Ncrit =   9.000
  
   alpha    CL        CD       CDp       CM     Top_Xtr  Bot_Xtr
  ------ -------- --------- --------- -------- -------- --------
   0.000   0.2995   0.02108   0.01123  -0.0549   0.8591   1.0000
   0.250   0.3254   0.02137   0.01142  -0.0544   0.8387   1.0000
   0.500   0.3456   0.02182   0.01178  -0.0531   0.8184   1.0000
   0.750   0.3672   0.02222   0.01211  -0.0518   0.8003   1.0000
   1.000   0.3876   0.02265   0.01248  -0.0502   0.7836   1.0000
   1.250   0.4057   0.02321   0.01299  -0.0485   0.7665   1.0000
   1.500   0.4236   0.02380   0.01355  -0.0469   0.7502   1.0000
   1.750   0.4416   0.02441   0.01413  -0.0452   0.7347   1.0000
   2.000   0.4596   0.02505   0.01474  -0.0436   0.7198   1.0000
   2.250   0.4777   0.02572   0.01542  -0.0420   0.7055   1.0000
   2.500   0.4958   0.02640   0.01610  -0.0403   0.6915   1.0000
   2.750   0.5141   0.02712   0.01682  -0.0387   0.6782   1.0000
   3.000   0.5324   0.02784   0.01754  -0.0371   0.6650   1.0000
   3.250   0.5520   0.02848   0.01822  -0.0354   0.6529   1.0000
   3.500   0.5697   0.02934   0.01911  -0.0339   0.6397   1.0000
   3.750   0.5863   0.03034   0.02017  -0.0325   0.6264   1.0000
   4.000   0.6026   0.03142   0.02132  -0.0312   0.6135   1.0000
   4.250   0.6186   0.03254   0.02250  -0.0298   0.6007   1.0000
   4.500   0.6345   0.03372   0.02380  -0.0285   0.5885   1.0000
   4.750   0.6516   0.03479   0.02494  -0.0270   0.5764   1.0000
   5.000   0.6723   0.03556   0.02577  -0.0254   0.5655   1.0000
   5.250   0.6901   0.03662   0.02692  -0.0240   0.5534   1.0000
   5.500   0.7020   0.03832   0.02875  -0.0229   0.5406   1.0000
   5.750   0.7132   0.04014   0.03073  -0.0218   0.5281   1.0000
   6.000   0.7249   0.04195   0.03266  -0.0206   0.5158   1.0000
   6.250   0.7380   0.04364   0.03447  -0.0194   0.5039   1.0000
   6.500   0.7557   0.04487   0.03583  -0.0180   0.4920   1.0000
   6.750   0.7841   0.04500   0.03610  -0.0162   0.4808   1.0000
   7.000   0.7876   0.04771   0.03899  -0.0154   0.4677   1.0000
   7.250   0.7846   0.05118   0.04258  -0.0149   0.4552   1.0000
   7.500   0.7779   0.05500   0.04647  -0.0146   0.4432   1.0000
   7.750   0.7747   0.05855   0.05010  -0.0143   0.4320   1.0000
   8.000   0.7831   0.06083   0.05250  -0.0133   0.4199   1.0000
   8.250   0.7967   0.06256   0.05437  -0.0119   0.4071   1.0000
   8.500   0.7491   0.07029   0.06190  -0.0138   0.4017   1.0000
   8.750   0.7514   0.07328   0.06497  -0.0134   0.3902   1.0000
   9.000   0.7605   0.07571   0.06752  -0.0126   0.3779   1.0000
   9.250   0.7685   0.07814   0.07008  -0.0118   0.3645   1.0000
   9.500   0.7751   0.08068   0.07274  -0.0110   0.3507   1.0000
   9.750   0.7483   0.08713   0.07909  -0.0134   0.3455   1.0000
  10.000   0.7534   0.08993   0.08200  -0.0129   0.3309   1.0000
  10.250   0.8474   0.07776   0.07067  -0.0007   0.2790   1.0000
  10.500   0.8066   0.08833   0.08100  -0.0060   0.2793   1.0000
  10.750   1.0514   0.04947   0.04049   0.0245   0.0929   1.0000
  11.000   1.0459   0.05262   0.04411   0.0264   0.0894   1.0000
  11.250   1.0444   0.05586   0.04761   0.0279   0.0858   1.0000
  11.500   1.0466   0.05942   0.05134   0.0289   0.0831   1.0000
  11.750   1.0554   0.06402   0.05598   0.0294   0.0805   1.0000
  12.000   1.0402   0.06805   0.06028   0.0298   0.0804   1.0000
  12.250   1.0237   0.07259   0.06505   0.0291   0.0805   1.0000
  12.500   0.9497   0.08181   0.07482   0.0212   0.0868   1.0000
  12.750   0.9168   0.09079   0.08393   0.0156   0.0900   1.0000
  13.000   0.8944   0.09929   0.09247   0.0110   0.0920   1.0000
  13.250   0.8765   0.10757   0.10075   0.0068   0.0930   1.0000
  13.250   0.8329   0.11901   0.11217  -0.0019   0.1061   1.0000
   0.000   0.2995   0.02108   0.01123  -0.0549   0.8591   1.0000
   0.250   0.3254   0.02137   0.01142  -0.0544   0.8387   1.0000
   0.500   0.3456   0.02182   0.01178  -0.0531   0.8184   1.0000
   0.750   0.3672   0.02222   0.01211  -0.0518   0.8003   1.0000
   1.000   0.3876   0.02265   0.01248  -0.0502   0.7836   1.0000
   1.250   0.4057   0.02321   0.01299  -0.0485   0.7665   1.0000
   1.500   0.4236   0.02380   0.01355  -0.0469   0.7502   1.0000
   1.750   0.4416   0.02441   0.01413  -0.0452   0.7347   1.0000
   2.000   0.4596   0.02505   0.01474  -0.0436   0.7198   1.0000
   2.250   0.4777   0.02572   0.01542  -0.0420   0.7055   1.0000
   2.500   0.4958   0.02640   0.01610  -0.0403   0.6915   1.0000
   2.750   0.5141   0.02712   0.01682  -0.0387   0.6782   1.0000
   3.000   0.5324   0.02784   0.01754  -0.0371   0.6650   1.0000
   3.250   0.5520   0.02848   0.01822  -0.0354   0.6529   1.0000
   3.500   0.5697   0.02934   0.01911  -0.0339   0.6397   1.0000
   3.750   0.5863   0.03034   0.02017  -0.0325   0.6264   1.0000
   4.000   0.6026   0.03142   0.02132  -0.0312   0.6135   1.0000
   4.250   0.6186   0.03254   0.02250  -0.0298   0.6007   1.0000
   4.500   0.6345   0.03372   0.02380  -0.0285   0.5885   1.0000
   4.750   0.6516   0.03479   0.02494  -0.0270   0.5764   1.0000
   5.000   0.6723   0.03556   0.02577  -0.0254   0.5655   1.0000
   5.250   0.6901   0.03662   0.02692  -0.0240   0.5534   1.0000
   5.500   0.7020   0.03832   0.02875  -0.0229   0.5406   1.0000
   5.750   0.7132   0.04014   0.03073  -0.0218   0.5281   1.0000
   6.000   0.7249   0.04195   0.03266  -0.0206   0.5158   1.0000
   6.250   0.7380   0.04364   0.03447  -0.0194   0.5039   1.0000
   6.500   0.7557   0.04487   0.03583  -0.0180   0.4920   1.0000
   6.750   0.7841   0.04500   0.03610  -0.0162   0.4808   1.0000
   7.000   0.7876   0.04771   0.03899  -0.0154   0.4677   1.0000
   7.250   0.7846   0.05118   0.04258  -0.0149   0.4552   1.0000
   7.500   0.7779   0.05500   0.04647  -0.0146   0.4432   1.0000
   7.750   0.7747   0.05855   0.05010  -0.0143   0.4320   1.0000
   8.000   0.7831   0.06083   0.05250  -0.0133   0.4199   1.0000
   8.250   0.7967   0.06256   0.05437  -0.0119   0.4071   1.0000
   8.500   0.7491   0.07029   0.06190  -0.0138   0.4017   1.0000
   8.750   0.7514   0.07328   0.06497  -0.0134   0.3902   1.0000
   9.000   0.7605   0.07571   0.06752  -0.0126   0.3779   1.0000
   9.250   0.7685   0.07814   0.07008  -0.0118   0.3645   1.0000
   9.500   0.7751   0.08068   0.07274  -0.0110   0.3507   1.0000
   9.750   0.7483   0.08713   0.07909  -0.0134   0.3455   1.0000
  10.000   0.7534   0.08993   0.08200  -0.0129   0.3309   1.0000
  10.250   0.8474   0.07776   0.07067  -0.0007   0.2790   1.0000
  10.500   0.8066   0.08833   0.08100  -0.0060   0.2793   1.0000
  10.750   1.0514   0.04947   0.04049   0.0245   0.0929   1.0000
  11.000   1.0459   0.05262   0.04411   0.0264   0.0894   1.0000
  11.250   1.0444   0.05586   0.04761   0.0279   0.0858   1.0000
  11.500   1.0466   0.05942   0.05134   0.0289   0.0831   1.0000
  11.750   1.0554   0.06402   0.05598   0.0294   0.0805   1.0000
  12.000   1.0402   0.06805   0.06028   0.0298   0.0804   1.0000
  12.250   1.0237   0.07259   0.06505   0.0291   0.0805   1.0000
  12.500   0.9497   0.08181   0.07482   0.0212   0.0868   1.0000
  12.750   0.9168   0.09079   0.08393   0.0156   0.0900   1.0000
  13.000   0.8944   0.09929   0.09247   0.0110   0.0920   1.0000
  13.250   0.8765   0.10757   0.10075   0.0068   0.0930   1.0000
  13.250   0.8329   0.11901   0.11217  -0.0019   0.1061   1.0000
