  
       XFOIL         Version 6.99
  
 Calculated polar for: AG14                                            
  
 1 1 Reynolds number fixed          Mach number fixed         
  
 xtrf =   1.000 (top)        1.000 (bottom)  
 Mach =   0.000     Re =     0.050 e 6     Ncrit =   9.000
  
   alpha    CL        CD       CDp       CM     Top_Xtr  Bot_Xtr
  ------ -------- --------- --------- -------- -------- --------
   0.000   0.1730   0.01401   0.00381  -0.0393   1.0000   1.0000
   0.250   0.1980   0.01414   0.00385  -0.0390   1.0000   1.0000
   0.500   0.2227   0.01430   0.00394  -0.0388   1.0000   1.0000
   0.750   0.2471   0.01450   0.00411  -0.0386   1.0000   1.0000
   1.000   0.2711   0.01474   0.00436  -0.0385   1.0000   1.0000
   1.250   0.2948   0.01506   0.00468  -0.0386   1.0000   1.0000
   1.500   0.3181   0.01546   0.00512  -0.0388   1.0000   1.0000
   1.750   0.3404   0.01598   0.00571  -0.0393   1.0000   1.0000
   2.000   0.3615   0.01669   0.00651  -0.0401   1.0000   1.0000
   2.250   0.3809   0.01767   0.00758  -0.0414   1.0000   1.0000
   2.500   0.4844   0.01826   0.00859  -0.0568   0.9434   1.0000
   2.750   0.5599   0.01809   0.00876  -0.0638   0.8843   1.0000
   3.000   0.5986   0.01804   0.00889  -0.0630   0.8246   1.0000
   3.250   0.6230   0.01822   0.00903  -0.0594   0.7671   1.0000
   3.500   0.6437   0.01858   0.00927  -0.0556   0.7105   1.0000
   3.750   0.6642   0.01909   0.00963  -0.0522   0.6544   1.0000
   4.000   0.6853   0.01974   0.01009  -0.0492   0.5989   1.0000
   4.250   0.7072   0.02051   0.01076  -0.0468   0.5438   1.0000
   4.500   0.7296   0.02140   0.01148  -0.0447   0.4899   1.0000
   4.750   0.7523   0.02242   0.01235  -0.0429   0.4379   1.0000
   5.000   0.7753   0.02354   0.01328  -0.0412   0.3898   1.0000
   5.250   0.7985   0.02482   0.01449  -0.0398   0.3439   1.0000
   5.500   0.8218   0.02620   0.01587  -0.0385   0.3026   1.0000
   5.750   0.8456   0.02780   0.01734  -0.0374   0.2684   1.0000
   6.000   0.8689   0.02954   0.01926  -0.0363   0.2346   1.0000
   6.250   0.8926   0.03173   0.02158  -0.0353   0.2083   1.0000
   6.500   0.9152   0.03390   0.02387  -0.0343   0.1833   1.0000
   6.750   0.9376   0.03677   0.02708  -0.0333   0.1640   1.0000
   7.000   0.9585   0.03947   0.02988  -0.0324   0.1451   1.0000
   7.250   0.9789   0.04330   0.03410  -0.0315   0.1336   1.0000
   7.500   0.9960   0.04670   0.03785  -0.0307   0.1195   1.0000
   7.750   1.0048   0.05272   0.04488  -0.0304   0.1165   1.0000
   8.000   1.0095   0.05930   0.05212  -0.0308   0.1159   1.0000
   8.250   1.0099   0.06614   0.05943  -0.0319   0.1167   1.0000
   8.500   1.0071   0.07294   0.06654  -0.0335   0.1177   1.0000
   8.750   1.0030   0.07959   0.07338  -0.0353   0.1187   1.0000
   9.000   0.9986   0.08619   0.08012  -0.0373   0.1202   1.0000
   9.000   0.9986   0.08618   0.08011  -0.0373   0.1202   1.0000
   9.100   0.9978   0.08868   0.08263  -0.0379   0.1199   1.0000
   9.500   0.8869   0.12451   0.11805  -0.0846   0.2975   1.0000
   9.250   0.8835   0.11997   0.11350  -0.0843   0.3066   1.0000
   9.350   0.8785   0.12129   0.11480  -0.0850   0.3023   1.0000
   9.450   0.8820   0.12324   0.11677  -0.0849   0.2991   1.0000
   9.750   0.8789   0.12861   0.12210  -0.0861   0.2905   1.0000
  10.000   0.8842   0.13330   0.12680  -0.0860   0.2792   1.0000
  10.250   0.8848   0.13727   0.13076  -0.0861   0.2650   1.0000
  10.500   0.8924   0.14207   0.13558  -0.0857   0.2531   1.0000
  10.750   0.8904   0.14575   0.13925  -0.0867   0.2436   1.0000
  11.000   0.8897   0.15027   0.14374  -0.0880   0.2381   1.0000
  11.250   0.9023   0.15550   0.14902  -0.0874   0.2283   1.0000
  11.500   0.8919   0.15862   0.15206  -0.0900   0.2235   1.0000
  11.750   0.9052   0.16418   0.15765  -0.0893   0.2128   1.0000
  12.000   0.8979   0.16659   0.16002  -0.0916   0.2046   1.0000
  12.250   0.9017   0.17094   0.16436  -0.0925   0.1967   1.0000
  12.500   0.9282   0.17893   0.17242  -0.0901   0.1866   1.0000
  12.750   0.9107   0.17946   0.17285  -0.0947   0.1841   1.0000
  13.000   0.9136   0.18291   0.17630  -0.0961   0.1769   1.0000
  13.250   0.9278   0.18945   0.18293  -0.0959   0.1724   1.0000
  13.500   0.9205   0.19075   0.18417  -0.0994   0.1675   1.0000
  13.750   0.9436   0.19907   0.19255  -0.0975   0.1595   1.0000
  14.000   0.9332   0.19917   0.19258  -0.1018   0.1569   1.0000
  14.250   0.9423   0.20330   0.19673  -0.1024   0.1483   1.0000
  14.500   0.9477   0.20770   0.20110  -0.1041   0.1448   1.0000
  14.750   0.9487   0.20983   0.20321  -0.1070   0.1391   1.0000
  15.000   0.9690   0.21799   0.21144  -0.1054   0.1335   1.0000
  15.250   0.9683   0.22003   0.21341  -0.1087   0.1320   1.0000
  15.500   0.9682   0.22134   0.21469  -0.1123   0.1280   1.0000
  15.750   0.9767   0.22529   0.21864  -0.1136   0.1231   1.0000
  16.000   0.9971   0.23533   0.22874  -0.1120   0.1196   1.0000
  16.250   0.9927   0.23416   0.22750  -0.1168   0.1182   1.0000
  16.500   0.9963   0.23615   0.22948  -0.1200   0.1144   1.0000
  16.750   1.0052   0.24004   0.23338  -0.1214   0.1100   1.0000
  17.000   1.0234   0.25008   0.24346  -0.1199   0.1064   1.0000
  17.250   1.0215   0.24862   0.24194  -0.1248   0.1050   1.0000
  17.500   1.0265   0.25056   0.24387  -0.1280   0.1009   1.0000
  17.750   1.0360   0.25462   0.24794  -0.1292   0.0963   1.0000
  18.000   1.0531   0.26527   0.25871  -0.1278   0.0934   1.0000
  18.250   1.0534   0.26383   0.25722  -0.1325   0.0925   1.0000
  18.500   1.0582   0.26509   0.25846  -0.1362   0.0900   1.0000
  18.750   1.0659   0.26820   0.26157  -0.1386   0.0868   1.0000
  19.000   1.0749   0.27206   0.26544  -0.1402   0.0839   1.0000
  19.250   1.0894   0.28111   0.27456  -0.1392   0.0811   1.0000
  19.500   1.0973   0.28579   0.27921  -0.1414   0.0804   1.0000
  19.750   1.1004   0.28460   0.27798  -0.1459   0.0795   1.0000
  20.000   1.1066   0.28596   0.27934  -0.1495   0.0775   1.0000
   0.000   0.1730   0.01401   0.00381  -0.0393   1.0000   1.0000
  -0.250   0.1478   0.01391   0.00387  -0.0396   1.0000   1.0000
  -0.500   0.1224   0.01383   0.00396  -0.0399   1.0000   1.0000
  -0.750   0.0968   0.01377   0.00412  -0.0402   1.0000   1.0000
  -1.000   0.0709   0.01373   0.00435  -0.0405   1.0000   1.0000
  -1.250   0.0447   0.01371   0.00467  -0.0408   1.0000   1.0000
  -1.500   0.0179   0.01370   0.00516  -0.0410   1.0000   1.0000
  -1.750  -0.0105   0.01371   0.00588  -0.0410   1.0000   1.0000
  -2.000  -0.0279   0.01740   0.00732  -0.0459   1.0000   0.3402
  -2.250  -0.0561   0.01971   0.00895  -0.0466   1.0000   0.2084
  -2.500  -0.0833   0.02141   0.01061  -0.0475   1.0000   0.1599
  -2.750  -0.1114   0.02351   0.01284  -0.0482   1.0000   0.1410
  -3.000  -0.1405   0.02550   0.01521  -0.0484   1.0000   0.1243
  -3.250  -0.1717   0.02824   0.01851  -0.0484   1.0000   0.1216
  -3.500  -0.2039   0.03156   0.02244  -0.0477   1.0000   0.1234
  -3.750  -0.2357   0.03514   0.02658  -0.0464   1.0000   0.1236
  -4.000  -0.2694   0.03950   0.03152  -0.0440   1.0000   0.1320
  -4.750  -0.4305   0.06460   0.05863   0.0068   1.0000   0.3665
  -4.600  -0.4241   0.06294   0.05700   0.0067   1.0000   0.3912
  -4.700  -0.4286   0.06424   0.05828   0.0058   1.0000   0.3774
  -5.000  -0.4428   0.06800   0.06197   0.0053   1.0000   0.3377
  -5.250  -0.4548   0.07136   0.06530   0.0054   1.0000   0.3111
  -5.000  -0.4428   0.06800   0.06197   0.0053   1.0000   0.3377
  -5.100  -0.4474   0.06928   0.06324   0.0058   1.0000   0.3257
  -5.200  -0.4527   0.07115   0.06507   0.0036   1.0000   0.3204
  -5.500  -0.4665   0.07497   0.06885   0.0061   1.0000   0.2897
  -5.750  -0.4786   0.07841   0.07226   0.0066   1.0000   0.2696
  -6.250  -0.5029   0.08672   0.08051   0.0037   1.0000   0.2382
  -6.500  -0.5110   0.08981   0.08356   0.0081   1.0000   0.2234
  -6.750  -0.5205   0.09352   0.08722   0.0092   1.0000   0.2098
  -7.000  -0.5317   0.09775   0.09141   0.0084   1.0000   0.1967
  -7.250  -0.5312   0.09952   0.09310   0.0149   1.0000   0.1869
  -7.000  -0.5317   0.09775   0.09141   0.0084   1.0000   0.1967
  -7.100  -0.5281   0.09785   0.09146   0.0138   1.0000   0.1943
  -7.200  -0.5279   0.09868   0.09225   0.0153   1.0000   0.1898
  -7.500  -0.5356   0.10307   0.09657   0.0162   1.0000   0.1800
  -8.000  -0.5450   0.10979   0.10318   0.0185   1.0000   0.1663
  -8.250  -0.5522   0.11324   0.10659   0.0190   1.0000   0.1584
  -8.500  -0.5591   0.11754   0.11083   0.0197   1.0000   0.1544
  -8.750  -0.5571   0.11949   0.11271   0.0223   1.0000   0.1484
  -9.000  -0.5788   0.12671   0.11995   0.0197   1.0000   0.1418
  -9.250  -0.5694   0.12712   0.12025   0.0240   1.0000   0.1396
  -9.000  -0.5788   0.12671   0.11995   0.0197   1.0000   0.1418
  -9.100  -0.5744   0.12676   0.11996   0.0216   1.0000   0.1413
  -9.200  -0.5707   0.12693   0.12008   0.0232   1.0000   0.1404
  -9.500  -0.5714   0.12978   0.12287   0.0257   1.0000   0.1341
  -9.750  -0.5948   0.13788   0.13100   0.0230   1.0000   0.1282
 -10.000  -0.5864   0.13820   0.13123   0.0269   1.0000   0.1269
 -10.250  -0.5856   0.14017   0.13314   0.0293   1.0000   0.1228
 -10.500  -0.5934   0.14399   0.13701   0.0299   1.0000   0.1179
 -10.750  -0.6109   0.15139   0.14441   0.0286   1.0000   0.1144
 -11.000  -0.6052   0.15182   0.14477   0.0320   1.0000   0.1130
 -11.250  -0.6063   0.15397   0.14688   0.0341   1.0000   0.1094
 -11.500  -0.6129   0.15749   0.15038   0.0351   1.0000   0.1054
 -11.750  -0.6382   0.16769   0.16062   0.0326   1.0000   0.1011
 -12.000  -0.6330   0.16777   0.16064   0.0358   1.0000   0.1005
 -12.250  -0.6313   0.16858   0.16139   0.0387   1.0000   0.0989
 -12.500  -0.6351   0.17107   0.16386   0.0406   1.0000   0.0958
 -12.750  -0.6420   0.17447   0.16724   0.0419   1.0000   0.0925
 -13.000  -0.6546   0.18004   0.17282   0.0417   1.0000   0.0890
 -13.250  -0.6670   0.18682   0.17959   0.0420   1.0000   0.0873
 -13.500  -0.6656   0.18681   0.17952   0.0450   1.0000   0.0864
 -13.750  -0.6686   0.18828   0.18096   0.0476   1.0000   0.0842
 -14.000  -0.6750   0.19116   0.18383   0.0493   1.0000   0.0810
 -14.250  -0.6833   0.19477   0.18744   0.0505   1.0000   0.0779
 -14.500  -0.7085   0.20823   0.20100   0.0480   1.0000   0.0742
 -14.750  -0.7075   0.20765   0.20037   0.0511   1.0000   0.0739
 -15.000  -0.7088   0.20753   0.20021   0.0541   1.0000   0.0733
 -15.250  -0.7133   0.20867   0.20133   0.0568   1.0000   0.0719
 -15.500  -0.7202   0.21117   0.20381   0.0590   1.0000   0.0700
 -15.750  -0.7280   0.21422   0.20686   0.0608   1.0000   0.0679
 -16.000  -0.7363   0.21753   0.21017   0.0624   1.0000   0.0659
 -16.250  -0.7452   0.22124   0.21387   0.0638   1.0000   0.0640
 -16.500  -0.7559   0.22659   0.21924   0.0644   1.0000   0.0622
 -16.750  -0.7741   0.23920   0.23186   0.0636   1.0000   0.0609
 -17.000  -0.7766   0.23840   0.23102   0.0666   1.0000   0.0606
 -17.250  -0.7809   0.23816   0.23075   0.0697   1.0000   0.0602
 -17.500  -0.7869   0.23885   0.23143   0.0726   1.0000   0.0595
 -17.750  -0.7945   0.24077   0.23333   0.0752   1.0000   0.0583
 -18.000  -0.8027   0.24345   0.23601   0.0774   1.0000   0.0567
 -18.250  -0.8112   0.24644   0.23900   0.0794   1.0000   0.0551
 -18.500  -0.8199   0.24958   0.24214   0.0814   1.0000   0.0536
 -18.750  -0.8287   0.25285   0.24541   0.0832   1.0000   0.0522
 -19.000  -0.8376   0.25640   0.24897   0.0849   1.0000   0.0508
 -19.250  -0.8469   0.26088   0.25353   0.0862   1.0000   0.0495
 -19.500  -0.8624   0.27469   0.26739   0.0851   1.0000   0.0481
 -19.750  -0.8711   0.27938   0.27203   0.0870   1.0000   0.0478
 -20.000  -0.8763   0.27845   0.27109   0.0902   1.0000   0.0477
