  
       XFOIL         Version 6.99
  
 Calculated polar for: E471  (6.25%)                                   
  
 1 1 Reynolds number fixed          Mach number fixed         
  
 xtrf =   1.000 (top)        1.000 (bottom)  
 Mach =   0.000     Re =     0.050 e 6     Ncrit =   9.000
  
   alpha    CL        CD       CDp       CM     Top_Xtr  Bot_Xtr
  ------ -------- --------- --------- -------- -------- --------
   0.000   0.2798   0.02315   0.01392  -0.0994   1.0000   1.0000
   0.250   0.3031   0.02370   0.01409  -0.0994   1.0000   1.0000
   0.500   0.3258   0.02429   0.01435  -0.0993   1.0000   1.0000
   0.750   0.3479   0.02493   0.01474  -0.0992   1.0000   1.0000
   1.000   0.3694   0.02560   0.01521  -0.0990   1.0000   1.0000
   1.250   0.3906   0.02631   0.01576  -0.0989   1.0000   1.0000
   1.500   0.4112   0.02708   0.01640  -0.0987   1.0000   1.0000
   1.750   0.4314   0.02789   0.01710  -0.0986   1.0000   1.0000
   2.000   0.4511   0.02875   0.01788  -0.0985   1.0000   1.0000
   2.250   0.4704   0.02968   0.01876  -0.0983   1.0000   1.0000
   2.500   0.4892   0.03067   0.01971  -0.0983   1.0000   1.0000
   2.750   0.5074   0.03173   0.02077  -0.0982   1.0000   1.0000
   3.000   0.5251   0.03286   0.02194  -0.0981   1.0000   1.0000
   3.250   0.5422   0.03408   0.02319  -0.0982   1.0000   1.0000
   3.500   0.5780   0.03573   0.02490  -0.1019   0.9881   1.0000
   3.750   0.6295   0.03743   0.02672  -0.1079   0.9665   1.0000
   4.000   0.6811   0.03879   0.02829  -0.1135   0.9448   1.0000
   4.250   0.7246   0.03979   0.02947  -0.1173   0.9212   1.0000
   4.500   0.7702   0.04057   0.03049  -0.1209   0.8969   1.0000
   4.750   0.8188   0.04103   0.03122  -0.1245   0.8716   1.0000
   5.000   0.8693   0.04103   0.03163  -0.1275   0.8449   1.0000
   5.250   0.9223   0.04041   0.03142  -0.1300   0.8163   1.0000
   5.500   0.9840   0.03864   0.03017  -0.1322   0.7858   1.0000
   5.750   1.0608   0.03459   0.02693  -0.1338   0.7520   1.0000
   6.000   1.1359   0.02925   0.02235  -0.1329   0.7022   1.0000
   6.250   1.1809   0.02573   0.01920  -0.1283   0.6111   1.0000
   6.500   1.1992   0.02585   0.01832  -0.1219   0.4517   1.0000
   6.750   1.2000   0.02867   0.01994  -0.1164   0.3228   1.0000
   7.000   1.2074   0.03229   0.02252  -0.1126   0.2171   1.0000
   7.250   1.2146   0.03566   0.02525  -0.1093   0.1412   1.0000
   7.500   1.2441   0.03966   0.02890  -0.1087   0.0990   1.0000
   7.750   1.2775   0.04371   0.03280  -0.1091   0.0816   1.0000
   8.000   1.3058   0.04767   0.03747  -0.1078   0.0765   1.0000
   8.250   1.3286   0.05204   0.04243  -0.1064   0.0740   1.0000
   8.500   1.3441   0.05665   0.04763  -0.1042   0.0735   1.0000
   8.750   1.3517   0.06149   0.05312  -0.1013   0.0740   1.0000
   9.000   1.3533   0.06642   0.05863  -0.0982   0.0748   1.0000
   9.250   1.3499   0.07139   0.06411  -0.0951   0.0758   1.0000
   9.500   1.3413   0.07635   0.06951  -0.0921   0.0770   1.0000
   9.750   1.3291   0.08127   0.07479  -0.0892   0.0781   1.0000
  10.000   1.3152   0.08608   0.07986  -0.0866   0.0792   1.0000
  10.250   1.2995   0.09077   0.08475  -0.0842   0.0802   1.0000
  10.500   1.2850   0.09578   0.08990  -0.0826   0.0809   1.0000
  10.750   1.2866   0.10216   0.09633  -0.0823   0.0820   1.0000
  11.000   1.1971   0.10912   0.10380  -0.0858   0.0880   1.0000
  11.250   1.1713   0.11750   0.11216  -0.0906   0.0903   1.0000
  11.500   1.1613   0.12517   0.11984  -0.0939   0.0931   1.0000
  11.750   1.1254   0.13983   0.13445  -0.1069   0.1004   1.0000
  12.000   0.9473   0.14337   0.13847  -0.0981   0.1053   1.0000
  12.250   0.9550   0.14828   0.14345  -0.0981   0.1082   1.0000
  12.500   1.0771   0.17765   0.17205  -0.1372   0.2222   1.0000
  12.750   1.0914   0.18326   0.17771  -0.1373   0.2170   1.0000
  13.000   1.0913   0.18837   0.18277  -0.1398   0.2141   1.0000
  13.250   1.0880   0.19194   0.18631  -0.1426   0.2066   1.0000
  13.250   1.0880   0.19195   0.18632  -0.1426   0.2066   1.0000
  13.350   1.0940   0.19415   0.18854  -0.1427   0.2046   1.0000
  13.450   1.1056   0.19731   0.19174  -0.1419   0.2028   1.0000
  13.750   1.0954   0.20094   0.19528  -0.1467   0.1967   1.0000
  14.000   1.1084   0.20612   0.20049  -0.1471   0.1903   1.0000
  14.250   1.1126   0.21087   0.20521  -0.1493   0.1867   1.0000
  14.500   1.1118   0.21358   0.20790  -0.1523   0.1797   1.0000
  14.750   1.1349   0.22168   0.21605  -0.1511   0.1744   1.0000
  15.000   1.1229   0.22186   0.21615  -0.1564   0.1698   1.0000
  15.250   1.1512   0.23120   0.22557  -0.1539   0.1611   1.0000
  15.500   1.1385   0.23055   0.22484  -0.1597   0.1588   1.0000
  15.750   1.1444   0.23379   0.22808  -0.1617   0.1512   1.0000
  16.000   1.1579   0.24015   0.23452  -0.1621   0.1469   1.0000
  16.250   1.1552   0.24117   0.23549  -0.1665   0.1418   1.0000
  16.500   1.1731   0.24780   0.24219  -0.1658   0.1354   1.0000
  16.750   1.1768   0.25150   0.24584  -0.1688   0.1334   1.0000
  17.000   1.1764   0.25260   0.24691  -0.1730   0.1290   1.0000
  17.250   1.1859   0.25669   0.25102  -0.1745   0.1243   1.0000
  17.500   1.2066   0.26678   0.26116  -0.1732   0.1209   1.0000
  17.750   1.2013   0.26509   0.25940  -0.1788   0.1192   1.0000
  18.000   1.2055   0.26727   0.26157  -0.1821   0.1147   1.0000
  18.250   1.2156   0.27158   0.26591  -0.1833   0.1106   1.0000
  18.500   1.2354   0.28247   0.27684  -0.1821   0.1078   1.0000
  18.750   1.2319   0.28021   0.27453  -0.1876   0.1065   1.0000
  19.000   1.2356   0.28170   0.27600  -0.1914   0.1032   1.0000
  19.250   1.2435   0.28512   0.27943  -0.1935   0.0995   1.0000
  19.500   1.2574   0.29174   0.28610  -0.1935   0.0960   1.0000
  19.750   1.2688   0.29915   0.29351  -0.1946   0.0946   1.0000
  20.000   1.2683   0.29730   0.29162  -0.1997   0.0933   1.0000
   0.000   0.2798   0.02315   0.01392  -0.0994   1.0000   1.0000
  -0.250   0.2555   0.02263   0.01395  -0.0994   1.0000   1.0000
  -0.500   0.2498   0.02300   0.01455  -0.1038   1.0000   0.6625
  -0.750   0.2036   0.02675   0.01575  -0.1017   1.0000   0.1553
  -1.000   0.1745   0.02772   0.01681  -0.1016   1.0000   0.1359
  -1.250   0.1430   0.02881   0.01834  -0.1012   1.0000   0.1281
  -1.500   0.1102   0.03024   0.02015  -0.1002   1.0000   0.1252
  -1.750   0.0717   0.03229   0.02283  -0.0981   1.0000   0.1272
  -2.000   0.0283   0.03487   0.02606  -0.0945   1.0000   0.1289
  -2.250  -0.0159   0.03807   0.02978  -0.0901   1.0000   0.1339
  -2.750  -0.3047   0.06037   0.05496  -0.0158   1.0000   0.3926
  -2.600  -0.2990   0.05894   0.05356  -0.0147   1.0000   0.4185
  -2.700  -0.3016   0.05991   0.05450  -0.0161   1.0000   0.4041
  -3.000  -0.3124   0.06303   0.05758  -0.0189   1.0000   0.3620
  -3.500  -0.3348   0.06863   0.06312  -0.0204   1.0000   0.3061
  -3.750  -0.3484   0.07148   0.06597  -0.0184   1.0000   0.2812
  -4.000  -0.3552   0.07441   0.06886  -0.0208   1.0000   0.2637
  -3.750  -0.3484   0.07147   0.06597  -0.0184   1.0000   0.2812
  -3.850  -0.3482   0.07274   0.06720  -0.0216   1.0000   0.2772
  -3.950  -0.3554   0.07376   0.06823  -0.0191   1.0000   0.2655
  -4.250  -0.3645   0.07748   0.07190  -0.0198   1.0000   0.2462
  -4.500  -0.3739   0.08004   0.07445  -0.0171   1.0000   0.2278
  -4.750  -0.3797   0.08287   0.07728  -0.0170   1.0000   0.2155
  -5.000  -0.3830   0.08665   0.08101  -0.0232   1.0000   0.2062
  -5.250  -0.3885   0.08833   0.08265  -0.0173   1.0000   0.1950
  -5.500  -0.3896   0.09108   0.08532  -0.0165   1.0000   0.1886
  -5.750  -0.3925   0.09369   0.08790  -0.0178   1.0000   0.1802
  -6.000  -0.3911   0.09633   0.09044  -0.0176   1.0000   0.1758
  -6.250  -0.3864   0.09785   0.09188  -0.0174   1.0000   0.1692
  -6.500  -0.3968   0.10273   0.09674  -0.0211   1.0000   0.1634
  -6.750  -0.3817   0.10256   0.09641  -0.0196   1.0000   0.1608
  -7.000  -0.3718   0.10368   0.09741  -0.0214   1.0000   0.1559
  -7.250  -0.3917   0.10992   0.10368  -0.0233   1.0000   0.1495
  -7.500  -0.3726   0.10939   0.10298  -0.0248   1.0000   0.1485
  -7.750  -0.3588   0.10955   0.10300  -0.0259   1.0000   0.1451
  -8.000  -0.3582   0.11167   0.10505  -0.0271   1.0000   0.1403
  -8.250  -0.3750   0.11794   0.11132  -0.0287   1.0000   0.1355
  -8.500  -0.3608   0.11743   0.11066  -0.0289   1.0000   0.1342
  -8.750  -0.3547   0.11836   0.11148  -0.0290   1.0000   0.1303
  -9.000  -0.3578   0.12100   0.11408  -0.0297   1.0000   0.1258
  -9.250  -0.3741   0.12768   0.12076  -0.0313   1.0000   0.1216
  -9.500  -0.3639   0.12730   0.12025  -0.0305   1.0000   0.1204
  -9.750  -0.3603   0.12833   0.12119  -0.0301   1.0000   0.1169
 -10.000  -0.3644   0.13112   0.12394  -0.0304   1.0000   0.1118
 -10.250  -0.3810   0.13826   0.13114  -0.0319   1.0000   0.1077
 -10.500  -0.3742   0.13810   0.13088  -0.0308   1.0000   0.1068
 -10.750  -0.3713   0.13893   0.13162  -0.0299   1.0000   0.1038
 -11.000  -0.3746   0.14147   0.13413  -0.0297   1.0000   0.0993
 -11.250  -0.3884   0.14731   0.13998  -0.0309   1.0000   0.0952
 -11.500  -0.3955   0.15205   0.14467  -0.0309   1.0000   0.0939
 -11.750  -0.3906   0.15184   0.14437  -0.0294   1.0000   0.0930
 -12.000  -0.3904   0.15292   0.14540  -0.0283   1.0000   0.0911
 -12.250  -0.3934   0.15521   0.14764  -0.0276   1.0000   0.0879
 -12.500  -0.3986   0.15810   0.15051  -0.0273   1.0000   0.0852
 -12.750  -0.4080   0.16269   0.15509  -0.0276   1.0000   0.0821
 -13.000  -0.4234   0.17089   0.16327  -0.0283   1.0000   0.0803
 -13.250  -0.4210   0.17076   0.16308  -0.0268   1.0000   0.0799
 -13.500  -0.4202   0.17097   0.16324  -0.0253   1.0000   0.0789
 -13.750  -0.4229   0.17255   0.16477  -0.0241   1.0000   0.0769
 -14.000  -0.4277   0.17505   0.16724  -0.0232   1.0000   0.0745
 -14.250  -0.4335   0.17787   0.17004  -0.0225   1.0000   0.0723
 -14.500  -0.4404   0.18117   0.17333  -0.0220   1.0000   0.0701
 -14.750  -0.4528   0.18775   0.17991  -0.0224   1.0000   0.0677
 -15.000  -0.4648   0.19511   0.18731  -0.0223   1.0000   0.0667
 -15.250  -0.4645   0.19463   0.18678  -0.0206   1.0000   0.0664
 -15.500  -0.4659   0.19460   0.18670  -0.0188   1.0000   0.0658
 -15.750  -0.4700   0.19579   0.18785  -0.0173   1.0000   0.0646
 -16.000  -0.4755   0.19791   0.18995  -0.0159   1.0000   0.0626
 -16.250  -0.4819   0.20053   0.19255  -0.0148   1.0000   0.0607
 -16.500  -0.4888   0.20344   0.19544  -0.0138   1.0000   0.0584
 -16.750  -0.4962   0.20666   0.19865  -0.0129   1.0000   0.0566
 -17.000  -0.5055   0.21146   0.20347  -0.0125   1.0000   0.0547
 -17.250  -0.5229   0.22393   0.21593  -0.0131   1.0000   0.0533
 -17.500  -0.5246   0.22316   0.21512  -0.0112   1.0000   0.0531
 -17.750  -0.5274   0.22259   0.21451  -0.0091   1.0000   0.0528
 -18.000  -0.5321   0.22299   0.21488  -0.0072   1.0000   0.0523
 -18.250  -0.5382   0.22437   0.21624  -0.0053   1.0000   0.0515
 -18.500  -0.5451   0.22646   0.21831  -0.0037   1.0000   0.0504
 -18.750  -0.5523   0.22897   0.22081  -0.0021   1.0000   0.0490
 -19.000  -0.5596   0.23162   0.22345  -0.0007   1.0000   0.0478
 -19.250  -0.5671   0.23437   0.22619   0.0008   1.0000   0.0465
 -19.500  -0.5748   0.23726   0.22913   0.0022   1.0000   0.0452
 -19.750  -0.5825   0.24019   0.23206   0.0037   1.0000   0.0441
 -20.000  -0.5904   0.24335   0.23522   0.0050   1.0000   0.0430
