  
       XFOIL         Version 6.99
  
 Calculated polar for: AG17                                            
  
 1 1 Reynolds number fixed          Mach number fixed         
  
 xtrf =   1.000 (top)        1.000 (bottom)  
 Mach =   0.000     Re =     0.050 e 6     Ncrit =   9.000
  
   alpha    CL        CD       CDp       CM     Top_Xtr  Bot_Xtr
  ------ -------- --------- --------- -------- -------- --------
   0.000   0.1550   0.01466   0.00452  -0.0395   1.0000   1.0000
   0.250   0.1791   0.01488   0.00465  -0.0395   1.0000   1.0000
   0.500   0.2031   0.01516   0.00486  -0.0395   1.0000   1.0000
   0.750   0.2266   0.01549   0.00515  -0.0396   1.0000   1.0000
   1.000   0.2497   0.01589   0.00554  -0.0398   1.0000   1.0000
   1.250   0.2721   0.01639   0.00603  -0.0402   1.0000   1.0000
   1.500   0.2938   0.01698   0.00665  -0.0407   1.0000   1.0000
   1.750   0.3146   0.01772   0.00742  -0.0414   1.0000   1.0000
   2.000   0.3344   0.01861   0.00837  -0.0425   1.0000   1.0000
   2.250   0.4125   0.01953   0.00952  -0.0537   0.9683   1.0000
   2.500   0.4944   0.01987   0.01017  -0.0639   0.9265   1.0000
   2.750   0.5562   0.01982   0.01045  -0.0686   0.8833   1.0000
   3.000   0.5971   0.01973   0.01054  -0.0686   0.8391   1.0000
   3.250   0.6265   0.01970   0.01060  -0.0662   0.7946   1.0000
   3.500   0.6504   0.01977   0.01069  -0.0628   0.7498   1.0000
   3.750   0.6723   0.01999   0.01093  -0.0592   0.7031   1.0000
   4.000   0.6937   0.02033   0.01122  -0.0560   0.6543   1.0000
   4.250   0.7154   0.02079   0.01157  -0.0530   0.6052   1.0000
   4.500   0.7373   0.02137   0.01201  -0.0503   0.5555   1.0000
   4.750   0.7595   0.02210   0.01262  -0.0481   0.5050   1.0000
   5.000   0.7819   0.02293   0.01331  -0.0459   0.4568   1.0000
   5.250   0.8043   0.02397   0.01427  -0.0442   0.4075   1.0000
   5.500   0.8268   0.02510   0.01522  -0.0425   0.3615   1.0000
   5.750   0.8494   0.02643   0.01638  -0.0409   0.3179   1.0000
   6.000   0.8719   0.02795   0.01779  -0.0396   0.2766   1.0000
   6.250   0.8940   0.02960   0.01946  -0.0383   0.2380   1.0000
   6.500   0.9169   0.03177   0.02171  -0.0371   0.2070   1.0000
   6.750   0.9382   0.03390   0.02400  -0.0359   0.1776   1.0000
   7.000   0.9606   0.03666   0.02692  -0.0348   0.1566   1.0000
   7.250   0.9801   0.03966   0.03023  -0.0337   0.1378   1.0000
   7.500   0.9998   0.04345   0.03432  -0.0327   0.1264   1.0000
   7.750   1.0164   0.04680   0.03795  -0.0317   0.1135   1.0000
   8.000   1.0249   0.05235   0.04440  -0.0309   0.1101   1.0000
   8.250   1.0292   0.05840   0.05110  -0.0306   0.1092   1.0000
   8.500   1.0272   0.06483   0.05805  -0.0310   0.1094   1.0000
   8.750   1.0201   0.07144   0.06502  -0.0321   0.1105   1.0000
   9.000   1.0106   0.07798   0.07179  -0.0337   0.1119   1.0000
   9.250   1.0017   0.08434   0.07826  -0.0354   0.1131   1.0000
   9.500   0.9942   0.09051   0.08449  -0.0371   0.1140   1.0000
   9.500   0.9926   0.09065   0.08467  -0.0374   0.1150   1.0000
   9.600   0.9915   0.09293   0.08695  -0.0377   0.1146   1.0000
  10.000   0.8670   0.13099   0.12450  -0.0846   0.2868   1.0000
   9.750   0.8816   0.12711   0.12072  -0.0822   0.2917   1.0000
   9.850   0.8864   0.12978   0.12339  -0.0823   0.2906   1.0000
   9.950   0.8720   0.13052   0.12406  -0.0840   0.2887   1.0000
  10.250   0.8893   0.13737   0.13098  -0.0831   0.2769   1.0000
  10.500   0.8666   0.13984   0.13334  -0.0863   0.2718   1.0000
  10.750   0.8716   0.14438   0.13788  -0.0863   0.2603   1.0000
  11.000   0.8765   0.14872   0.14222  -0.0862   0.2474   1.0000
  11.250   0.8873   0.15363   0.14724  -0.0858   0.2369   1.0000
  11.500   0.8767   0.15698   0.15051  -0.0884   0.2322   1.0000
  11.750   0.8924   0.16256   0.15615  -0.0877   0.2231   1.0000
  12.000   0.8823   0.16558   0.15909  -0.0905   0.2189   1.0000
  12.250   0.9002   0.17175   0.16530  -0.0893   0.2081   1.0000
  12.500   0.8869   0.17336   0.16684  -0.0927   0.2028   1.0000
  12.750   0.8992   0.17870   0.17219  -0.0925   0.1935   1.0000
  13.000   0.8969   0.18133   0.17480  -0.0946   0.1857   1.0000
  13.250   0.9135   0.18808   0.18158  -0.0941   0.1808   1.0000
  13.500   0.9044   0.18928   0.18271  -0.0977   0.1757   1.0000
  13.750   0.9232   0.19584   0.18933  -0.0967   0.1687   1.0000
  14.000   0.9204   0.19857   0.19200  -0.0996   0.1662   1.0000
  14.250   0.9208   0.20097   0.19437  -0.1021   0.1599   1.0000
  14.500   0.9386   0.20821   0.20164  -0.1013   0.1538   1.0000
  14.750   0.9328   0.20874   0.20211  -0.1053   0.1497   1.0000
  15.000   0.9592   0.21864   0.21208  -0.1027   0.1409   1.0000
  15.250   0.9497   0.21756   0.21092  -0.1076   0.1393   1.0000
  15.500   0.9520   0.21977   0.21312  -0.1105   0.1342   1.0000
  15.750   0.9646   0.22495   0.21833  -0.1106   0.1293   1.0000
  16.000   0.9760   0.23132   0.22475  -0.1114   0.1271   1.0000
  16.250   0.9739   0.23141   0.22479  -0.1158   0.1242   1.0000
  16.500   0.9807   0.23463   0.22801  -0.1179   0.1195   1.0000
  16.750   0.9956   0.24118   0.23461  -0.1174   0.1154   1.0000
  17.000   1.0034   0.24610   0.23951  -0.1193   0.1138   1.0000
  17.250   1.0038   0.24612   0.23948  -0.1236   0.1114   1.0000
  17.500   1.0107   0.24909   0.24245  -0.1260   0.1070   1.0000
  17.750   1.0240   0.25513   0.24853  -0.1258   0.1025   1.0000
  18.000   1.0330   0.26053   0.25391  -0.1274   0.1007   1.0000
  18.250   1.0348   0.26026   0.25360  -0.1319   0.0983   1.0000
  18.500   1.0421   0.26315   0.25649  -0.1343   0.0941   1.0000
  18.750   1.0523   0.26754   0.26091  -0.1353   0.0905   1.0000
  19.000   1.0699   0.27940   0.27280  -0.1338   0.0882   1.0000
  19.250   1.0706   0.27742   0.27078  -0.1385   0.0876   1.0000
  19.500   1.0749   0.27777   0.27110  -0.1426   0.0858   1.0000
  19.750   1.0823   0.28045   0.27378  -0.1454   0.0829   1.0000
  20.000   1.0908   0.28384   0.27718  -0.1474   0.0801   1.0000
   0.000   0.1550   0.01466   0.00452  -0.0395   1.0000   1.0000
  -0.250   0.1306   0.01448   0.00447  -0.0397   1.0000   1.0000
  -0.500   0.1058   0.01433   0.00448  -0.0398   1.0000   1.0000
  -0.750   0.0808   0.01422   0.00454  -0.0399   1.0000   1.0000
  -1.000   0.0553   0.01413   0.00468  -0.0400   1.0000   1.0000
  -1.250   0.0294   0.01407   0.00493  -0.0400   1.0000   1.0000
  -1.500   0.0028   0.01403   0.00524  -0.0399   1.0000   1.0000
  -1.750  -0.0251   0.01403   0.00568  -0.0394   1.0000   1.0000
  -2.000  -0.0594   0.01409   0.00650  -0.0368   1.0000   1.0000
  -2.250  -0.0821   0.01586   0.00757  -0.0406   1.0000   0.6703
  -2.500  -0.0969   0.01719   0.00824  -0.0449   1.0000   0.5183
  -2.750  -0.1178   0.01866   0.00894  -0.0474   1.0000   0.3596
  -3.000  -0.1431   0.02039   0.01013  -0.0485   1.0000   0.2388
  -3.250  -0.1691   0.02225   0.01174  -0.0494   1.0000   0.1796
  -3.500  -0.1964   0.02423   0.01380  -0.0500   1.0000   0.1470
  -3.750  -0.2250   0.02658   0.01650  -0.0504   1.0000   0.1307
  -4.000  -0.2532   0.02914   0.01945  -0.0504   1.0000   0.1188
  -4.250  -0.2836   0.03268   0.02365  -0.0498   1.0000   0.1175
  -4.500  -0.3137   0.03686   0.02844  -0.0484   1.0000   0.1188
  -4.750  -0.3424   0.04138   0.03350  -0.0462   1.0000   0.1195
  -5.000  -0.3687   0.04602   0.03846  -0.0445   1.0000   0.1238
  -5.250  -0.4495   0.06916   0.06320   0.0088   1.0000   0.3644
  -5.500  -0.4601   0.07245   0.06644   0.0079   1.0000   0.3370
  -5.750  -0.4736   0.07616   0.07012   0.0062   1.0000   0.3179
  -6.000  -0.4868   0.08032   0.07424   0.0047   1.0000   0.3025
  -6.250  -0.4898   0.08304   0.07687   0.0096   1.0000   0.2835
  -6.500  -0.4978   0.08652   0.08030   0.0108   1.0000   0.2691
  -6.750  -0.5061   0.09016   0.08388   0.0116   1.0000   0.2567
  -7.000  -0.5187   0.09445   0.08814   0.0107   1.0000   0.2457
  -7.250  -0.5311   0.09864   0.09232   0.0098   1.0000   0.2333
  -7.500  -0.5213   0.10005   0.09358   0.0142   1.0000   0.2240
  -7.750  -0.5274   0.10381   0.09729   0.0148   1.0000   0.2160
  -8.000  -0.5447   0.10901   0.10248   0.0131   1.0000   0.2048
  -8.250  -0.5343   0.11011   0.10346   0.0168   1.0000   0.1975
  -8.500  -0.5438   0.11438   0.10770   0.0167   1.0000   0.1895
  -8.750  -0.5632   0.12020   0.11359   0.0147   1.0000   0.1776
  -9.000  -0.5494   0.12068   0.11394   0.0191   1.0000   0.1742
  -9.250  -0.5731   0.12750   0.12079   0.0165   1.0000   0.1638
  -9.500  -0.5595   0.12777   0.12094   0.0209   1.0000   0.1611
  -9.750  -0.5636   0.13084   0.12398   0.0220   1.0000   0.1540
 -10.000  -0.5788   0.13679   0.12993   0.0212   1.0000   0.1496
 -10.250  -0.5712   0.13779   0.13084   0.0245   1.0000   0.1457
 -10.500  -0.5786   0.14146   0.13450   0.0251   1.0000   0.1397
 -10.750  -0.5943   0.14786   0.14089   0.0244   1.0000   0.1360
 -11.000  -0.5869   0.14854   0.14149   0.0277   1.0000   0.1332
 -11.250  -0.5910   0.15156   0.14449   0.0291   1.0000   0.1281
 -11.500  -0.6173   0.16071   0.15368   0.0267   1.0000   0.1228
 -11.750  -0.6087   0.16065   0.15354   0.0302   1.0000   0.1217
 -12.000  -0.6071   0.16214   0.15498   0.0328   1.0000   0.1184
 -12.250  -0.6133   0.16546   0.15828   0.0340   1.0000   0.1140
 -12.500  -0.6418   0.17618   0.16904   0.0315   1.0000   0.1092
 -12.750  -0.6350   0.17588   0.16867   0.0348   1.0000   0.1086
 -13.000  -0.6328   0.17650   0.16924   0.0378   1.0000   0.1067
 -13.250  -0.6372   0.17911   0.17183   0.0397   1.0000   0.1031
 -13.500  -0.6453   0.18275   0.17552   0.0408   1.0000   0.0995
 -13.750  -0.6722   0.19448   0.18730   0.0386   1.0000   0.0957
 -14.000  -0.6677   0.19373   0.18649   0.0418   1.0000   0.0952
 -14.250  -0.6672   0.19389   0.18661   0.0449   1.0000   0.0938
 -14.500  -0.6721   0.19607   0.18876   0.0472   1.0000   0.0908
 -14.750  -0.6798   0.19931   0.19199   0.0487   1.0000   0.0874
 -15.000  -0.6910   0.20414   0.19683   0.0492   1.0000   0.0840
 -15.250  -0.7072   0.21303   0.20572   0.0489   1.0000   0.0820
 -15.500  -0.7072   0.21233   0.20497   0.0522   1.0000   0.0814
 -15.750  -0.7111   0.21320   0.20581   0.0551   1.0000   0.0796
 -16.000  -0.7183   0.21580   0.20840   0.0573   1.0000   0.0769
 -16.250  -0.7266   0.21903   0.21162   0.0590   1.0000   0.0743
 -16.500  -0.7358   0.22278   0.21538   0.0603   1.0000   0.0720
 -16.750  -0.7486   0.22932   0.22194   0.0604   1.0000   0.0699
 -17.000  -0.7629   0.23831   0.23092   0.0607   1.0000   0.0688
 -17.250  -0.7653   0.23742   0.22999   0.0640   1.0000   0.0685
 -17.500  -0.7700   0.23755   0.23009   0.0672   1.0000   0.0678
 -17.750  -0.7769   0.23915   0.23174   0.0700   1.0000   0.0663
 -18.000  -0.7850   0.24180   0.23438   0.0722   1.0000   0.0645
 -18.250  -0.7936   0.24482   0.23741   0.0743   1.0000   0.0627
 -18.500  -0.8024   0.24804   0.24063   0.0761   1.0000   0.0609
 -18.750  -0.8114   0.25153   0.24413   0.0778   1.0000   0.0592
 -19.000  -0.8212   0.25591   0.24852   0.0791   1.0000   0.0577
 -19.500  -0.8451   0.27213   0.26474   0.0803   1.0000   0.0558
 -19.750  -0.8498   0.27104   0.26363   0.0836   1.0000   0.0556
 -19.500  -0.8451   0.27212   0.26473   0.0803   1.0000   0.0558
 -19.600  -0.8468   0.27158   0.26418   0.0816   1.0000   0.0557
 -19.700  -0.8488   0.27123   0.26383   0.0830   1.0000   0.0556
 -20.000  -0.8560   0.27082   0.26339   0.0869   1.0000   0.0552
