  
       XFOIL         Version 6.99
  
 Calculated polar for: MH 30  7.84%                                    
  
 1 1 Reynolds number fixed          Mach number fixed         
  
 xtrf =   1.000 (top)        1.000 (bottom)  
 Mach =   0.000     Re =     0.050 e 6     Ncrit =   9.000
  
   alpha    CL        CD       CDp       CM     Top_Xtr  Bot_Xtr
  ------ -------- --------- --------- -------- -------- --------
   0.000   0.0285   0.01697   0.00646  -0.0172   1.0000   1.0000
  -0.250   0.0088   0.01672   0.00635  -0.0179   1.0000   1.0000
  -0.150   0.0167   0.01682   0.00638  -0.0176   1.0000   1.0000
  -0.050   0.0246   0.01692   0.00643  -0.0173   1.0000   1.0000
   0.250   0.0480   0.01726   0.00659  -0.0165   1.0000   1.0000
   0.000   0.0285   0.01697   0.00646  -0.0172   1.0000   1.0000
   0.100   0.0363   0.01708   0.00652  -0.0169   1.0000   1.0000
   0.200   0.0441   0.01720   0.00658  -0.0166   1.0000   1.0000
   0.500   0.0673   0.01759   0.00682  -0.0158   1.0000   1.0000
   0.250   0.0480   0.01726   0.00659  -0.0165   1.0000   1.0000
   0.350   0.0558   0.01739   0.00667  -0.0162   1.0000   1.0000
   0.450   0.0635   0.01752   0.00677  -0.0160   1.0000   1.0000
   0.750   0.0863   0.01796   0.00711  -0.0153   1.0000   1.0000
   0.500   0.0673   0.01759   0.00682  -0.0158   1.0000   1.0000
   0.600   0.0750   0.01773   0.00693  -0.0156   1.0000   1.0000
   0.700   0.0826   0.01789   0.00705  -0.0154   1.0000   1.0000
   1.000   0.1050   0.01839   0.00748  -0.0147   1.0000   1.0000
   0.750   0.0863   0.01796   0.00711  -0.0153   1.0000   1.0000
   0.850   0.0939   0.01813   0.00725  -0.0150   1.0000   1.0000
   0.950   0.1013   0.01830   0.00740  -0.0148   1.0000   1.0000
   1.250   0.1233   0.01887   0.00791  -0.0143   1.0000   1.0000
   1.000   0.1050   0.01839   0.00748  -0.0147   1.0000   1.0000
   1.100   0.1124   0.01857   0.00764  -0.0145   1.0000   1.0000
   1.200   0.1197   0.01877   0.00782  -0.0144   1.0000   1.0000
   1.500   0.1411   0.01941   0.00843  -0.0139   1.0000   1.0000
   1.250   0.1233   0.01887   0.00791  -0.0143   1.0000   1.0000
   1.350   0.1305   0.01907   0.00811  -0.0141   1.0000   1.0000
   1.450   0.1376   0.01929   0.00832  -0.0139   1.0000   1.0000
   1.750   0.1584   0.02001   0.00902  -0.0135   1.0000   1.0000
   1.500   0.1411   0.01941   0.00843  -0.0139   1.0000   1.0000
   1.600   0.1481   0.01964   0.00865  -0.0137   1.0000   1.0000
   1.700   0.1550   0.01989   0.00890  -0.0136   1.0000   1.0000
   2.000   0.1752   0.02070   0.00970  -0.0133   1.0000   1.0000
   1.750   0.1584   0.02001   0.00902  -0.0135   1.0000   1.0000
   1.850   0.1652   0.02028   0.00928  -0.0134   1.0000   1.0000
   1.950   0.1719   0.02055   0.00956  -0.0134   1.0000   1.0000
   2.250   0.1914   0.02146   0.01049  -0.0132   1.0000   1.0000
   2.000   0.1752   0.02070   0.00970  -0.0133   1.0000   1.0000
   0.000   0.0285   0.01697   0.00646  -0.0172   1.0000   1.0000
  -0.250   0.0088   0.01672   0.00635  -0.0179   1.0000   1.0000
  -0.150   0.0167   0.01682   0.00638  -0.0176   1.0000   1.0000
  -0.050   0.0246   0.01692   0.00643  -0.0173   1.0000   1.0000
   0.250   0.0480   0.01726   0.00659  -0.0165   1.0000   1.0000
   0.000   0.0285   0.01697   0.00646  -0.0172   1.0000   1.0000
   0.100   0.0363   0.01708   0.00652  -0.0169   1.0000   1.0000
   0.200   0.0441   0.01720   0.00658  -0.0166   1.0000   1.0000
   0.500   0.0673   0.01759   0.00682  -0.0158   1.0000   1.0000
   0.250   0.0480   0.01726   0.00659  -0.0165   1.0000   1.0000
   0.350   0.0558   0.01739   0.00667  -0.0162   1.0000   1.0000
   0.450   0.0635   0.01752   0.00677  -0.0160   1.0000   1.0000
   0.750   0.0863   0.01796   0.00711  -0.0153   1.0000   1.0000
   0.500   0.0673   0.01759   0.00682  -0.0158   1.0000   1.0000
   0.600   0.0750   0.01773   0.00693  -0.0156   1.0000   1.0000
   0.700   0.0826   0.01789   0.00705  -0.0154   1.0000   1.0000
   1.000   0.1050   0.01839   0.00748  -0.0147   1.0000   1.0000
   0.750   0.0863   0.01796   0.00711  -0.0153   1.0000   1.0000
   0.850   0.0939   0.01813   0.00725  -0.0150   1.0000   1.0000
   0.950   0.1013   0.01830   0.00740  -0.0148   1.0000   1.0000
   1.250   0.1233   0.01887   0.00791  -0.0143   1.0000   1.0000
   1.000   0.1050   0.01839   0.00748  -0.0147   1.0000   1.0000
   1.100   0.1124   0.01857   0.00764  -0.0145   1.0000   1.0000
   1.200   0.1197   0.01877   0.00782  -0.0144   1.0000   1.0000
   1.500   0.1411   0.01941   0.00843  -0.0139   1.0000   1.0000
   1.250   0.1233   0.01887   0.00791  -0.0143   1.0000   1.0000
   1.350   0.1305   0.01907   0.00811  -0.0141   1.0000   1.0000
   1.450   0.1376   0.01929   0.00832  -0.0139   1.0000   1.0000
   1.750   0.1584   0.02001   0.00902  -0.0135   1.0000   1.0000
   1.500   0.1411   0.01941   0.00843  -0.0139   1.0000   1.0000
   1.600   0.1481   0.01964   0.00865  -0.0137   1.0000   1.0000
   1.700   0.1550   0.01989   0.00890  -0.0136   1.0000   1.0000
   2.000   0.1752   0.02070   0.00970  -0.0133   1.0000   1.0000
   1.750   0.1584   0.02001   0.00902  -0.0135   1.0000   1.0000
   1.850   0.1652   0.02028   0.00928  -0.0134   1.0000   1.0000
   1.950   0.1719   0.02055   0.00956  -0.0134   1.0000   1.0000
   2.250   0.1914   0.02146   0.01049  -0.0132   1.0000   1.0000
   2.000   0.1752   0.02070   0.00970  -0.0133   1.0000   1.0000
   2.100   0.1818   0.02099   0.01000  -0.0133   1.0000   1.0000
   2.200   0.1882   0.02130   0.01032  -0.0132   1.0000   1.0000
   2.500   0.2458   0.02290   0.01202  -0.0203   0.9825   1.0000
   2.250   0.1914   0.02146   0.01049  -0.0132   1.0000   1.0000
   2.350   0.2018   0.02185   0.01090  -0.0140   0.9979   1.0000
   2.450   0.2299   0.02251   0.01161  -0.0180   0.9872   1.0000
   2.750   0.3143   0.02425   0.01357  -0.0294   0.9554   1.0000
   2.500   0.2458   0.02290   0.01202  -0.0203   0.9825   1.0000
   2.600   0.2719   0.02343   0.01263  -0.0238   0.9714   1.0000
   2.700   0.2973   0.02393   0.01322  -0.0271   0.9601   1.0000
   3.000   0.3755   0.02515   0.01468  -0.0365   0.9260   1.0000
   2.750   0.3143   0.02425   0.01357  -0.0294   0.9554   1.0000
   2.850   0.3385   0.02463   0.01403  -0.0323   0.9434   1.0000
   2.950   0.3621   0.02497   0.01446  -0.0349   0.9315   1.0000
   3.250   0.4344   0.02571   0.01550  -0.0423   0.8951   1.0000
   3.000   0.3755   0.02515   0.01468  -0.0365   0.9260   1.0000
   3.100   0.4043   0.02543   0.01508  -0.0398   0.9145   1.0000
   3.200   0.4269   0.02562   0.01537  -0.0419   0.9021   1.0000
   3.500   0.4984   0.02581   0.01600  -0.0481   0.8635   1.0000
   3.250   0.4344   0.02571   0.01550  -0.0423   0.8951   1.0000
   3.350   0.4595   0.02582   0.01580  -0.0447   0.8826   1.0000
   3.450   0.4856   0.02584   0.01596  -0.0470   0.8700   1.0000
   3.750   0.5640   0.02533   0.01591  -0.0528   0.8310   1.0000
   3.500   0.4984   0.02581   0.01600  -0.0481   0.8635   1.0000
   3.600   0.5244   0.02571   0.01605  -0.0502   0.8503   1.0000
   3.700   0.5488   0.02553   0.01602  -0.0517   0.8370   1.0000
   4.000   0.6130   0.02462   0.01560  -0.0538   0.7956   1.0000
   3.750   0.5641   0.02533   0.01591  -0.0528   0.8310   1.0000
   3.850   0.5857   0.02504   0.01577  -0.0536   0.8174   1.0000
   3.950   0.6052   0.02474   0.01566  -0.0539   0.8032   1.0000
   4.250   0.6552   0.02371   0.01499  -0.0529   0.7578   1.0000
   4.000   0.6130   0.02462   0.01560  -0.0538   0.7956   1.0000
   4.100   0.6320   0.02422   0.01533  -0.0538   0.7811   1.0000
   4.200   0.6500   0.02378   0.01501  -0.0535   0.7664   1.0000
   4.500   0.6908   0.02279   0.01428  -0.0506   0.7160   1.0000
   4.250   0.6552   0.02371   0.01499  -0.0529   0.7578   1.0000
   4.350   0.6707   0.02330   0.01468  -0.0522   0.7418   1.0000
   4.450   0.6861   0.02286   0.01431  -0.0512   0.7254   1.0000
   4.750   0.7219   0.02201   0.01357  -0.0473   0.6693   1.0000
   4.500   0.6908   0.02279   0.01427  -0.0506   0.7160   1.0000
   4.600   0.7044   0.02240   0.01394  -0.0494   0.6983   1.0000
   4.700   0.7149   0.02222   0.01379  -0.0480   0.6785   1.0000
   5.000   0.7463   0.02182   0.01341  -0.0438   0.6146   1.0000
   4.750   0.7219   0.02201   0.01357  -0.0473   0.6693   1.0000
   4.850   0.7307   0.02197   0.01355  -0.0459   0.6473   1.0000
   4.950   0.7409   0.02188   0.01342  -0.0445   0.6255   1.0000
   5.250   0.7672   0.02214   0.01361  -0.0404   0.5536   1.0000
   5.000   0.7463   0.02182   0.01341  -0.0438   0.6146   1.0000
   5.100   0.7545   0.02192   0.01348  -0.0424   0.5904   1.0000
   5.200   0.7630   0.02206   0.01356  -0.0411   0.5660   1.0000
   5.500   0.7877   0.02274   0.01393  -0.0372   0.4913   1.0000
   5.250   0.7672   0.02214   0.01361  -0.0404   0.5536   1.0000
   5.350   0.7755   0.02235   0.01372  -0.0391   0.5288   1.0000
   5.450   0.7836   0.02260   0.01385  -0.0378   0.5037   1.0000
   5.750   0.8059   0.02367   0.01464  -0.0344   0.4270   1.0000
   5.500   0.7877   0.02274   0.01393  -0.0372   0.4912   1.0000
   5.600   0.7951   0.02308   0.01419  -0.0361   0.4655   1.0000
   5.700   0.8023   0.02347   0.01448  -0.0349   0.4397   1.0000
   6.000   0.8239   0.02488   0.01555  -0.0318   0.3645   1.0000
   5.750   0.8059   0.02367   0.01464  -0.0344   0.4270   1.0000
   5.850   0.8132   0.02413   0.01500  -0.0333   0.4018   1.0000
   5.950   0.8203   0.02462   0.01536  -0.0323   0.3768   1.0000
   6.250   0.8413   0.02633   0.01672  -0.0294   0.3044   1.0000
   6.000   0.8239   0.02488   0.01555  -0.0318   0.3644   1.0000
   6.100   0.8313   0.02543   0.01592  -0.0308   0.3407   1.0000
   6.200   0.8380   0.02601   0.01643  -0.0298   0.3162   1.0000
   6.500   0.8585   0.02805   0.01813  -0.0272   0.2486   1.0000
   6.250   0.8413   0.02633   0.01672  -0.0294   0.3045   1.0000
   6.350   0.8484   0.02703   0.01731  -0.0285   0.2817   1.0000
   6.450   0.8555   0.02771   0.01777  -0.0276   0.2598   1.0000
   6.750   0.8768   0.03020   0.02010  -0.0252   0.2011   1.0000
   6.500   0.8585   0.02805   0.01813  -0.0272   0.2486   1.0000
   6.600   0.8660   0.02891   0.01891  -0.0264   0.2288   1.0000
   6.700   0.8734   0.02979   0.01974  -0.0256   0.2099   1.0000
   7.000   0.8973   0.03265   0.02237  -0.0237   0.1647   1.0000
   6.750   0.8768   0.03020   0.02010  -0.0252   0.2011   1.0000
   6.850   0.8834   0.03097   0.02092  -0.0245   0.1841   1.0000
   6.950   0.8918   0.03202   0.02195  -0.0238   0.1704   1.0000
   7.250   0.9169   0.03518   0.02492  -0.0222   0.1380   1.0000
   7.000   0.8973   0.03265   0.02237  -0.0237   0.1647   1.0000
   7.100   0.9053   0.03370   0.02358  -0.0230   0.1539   1.0000
   7.200   0.9124   0.03469   0.02467  -0.0223   0.1433   1.0000
   7.500   0.9369   0.03840   0.02857  -0.0206   0.1224   1.0000
   7.250   0.9169   0.03518   0.02492  -0.0222   0.1380   1.0000
   7.350   0.9237   0.03620   0.02624  -0.0214   0.1300   1.0000
   7.450   0.9335   0.03767   0.02761  -0.0211   0.1243   1.0000
   7.750   0.9574   0.04207   0.03239  -0.0194   0.1114   1.0000
   7.500   0.9369   0.03840   0.02857  -0.0206   0.1224   1.0000
   7.600   0.9442   0.03990   0.03035  -0.0199   0.1185   1.0000
   7.700   0.9530   0.04118   0.03162  -0.0194   0.1141   1.0000
   8.000   0.9714   0.04500   0.03579  -0.0176   0.1006   1.0000
   7.750   0.9574   0.04207   0.03239  -0.0194   0.1115   1.0000
   7.850   0.9609   0.04345   0.03422  -0.0183   0.1083   1.0000
   7.950   0.9659   0.04468   0.03565  -0.0176   0.1041   1.0000
   8.250   0.9819   0.04954   0.04087  -0.0158   0.0971   1.0000
   8.000   0.9714   0.04500   0.03579  -0.0176   0.1005   1.0000
   8.100   0.9770   0.04686   0.03772  -0.0171   0.0981   1.0000
   8.200   0.9803   0.04864   0.03982  -0.0162   0.0973   1.0000
   8.500   0.9864   0.05443   0.04640  -0.0138   0.0960   1.0000
   8.250   0.9819   0.04954   0.04087  -0.0158   0.0971   1.0000
   8.350   0.9842   0.05145   0.04305  -0.0150   0.0965   1.0000
   8.450   0.9859   0.05339   0.04525  -0.0142   0.0962   1.0000
   8.750   0.9866   0.05948   0.05196  -0.0121   0.0961   1.0000
   8.500   0.9864   0.05443   0.04640  -0.0138   0.0960   1.0000
   8.600   0.9871   0.05641   0.04860  -0.0131   0.0960   1.0000
   8.700   0.9871   0.05841   0.05080  -0.0124   0.0961   1.0000
   9.000   0.9826   0.06454   0.05743  -0.0108   0.0965   1.0000
   8.750   0.9866   0.05948   0.05196  -0.0121   0.0961   1.0000
   8.850   0.9856   0.06149   0.05414  -0.0115   0.0963   1.0000
   8.950   0.9837   0.06354   0.05635  -0.0110   0.0964   1.0000
   9.250   0.9749   0.06963   0.06283  -0.0097   0.0970   1.0000
   9.000   0.9826   0.06454   0.05743  -0.0108   0.0965   1.0000
   9.100   0.9801   0.06657   0.05959  -0.0103   0.0968   1.0000
   9.200   0.9773   0.06860   0.06174  -0.0099   0.0970   1.0000
   9.500   0.9653   0.07472   0.06813  -0.0091   0.0976   1.0000
   9.250   0.9749   0.06963   0.06283  -0.0097   0.0970   1.0000
   9.350   0.9704   0.07168   0.06498  -0.0094   0.0972   1.0000
   9.450   0.9667   0.07371   0.06710  -0.0092   0.0975   1.0000
   9.750   0.9540   0.07985   0.07340  -0.0088   0.0982   1.0000
   9.500   0.9653   0.07472   0.06813  -0.0091   0.0976   1.0000
   9.600   0.9602   0.07677   0.07025  -0.0089   0.0978   1.0000
   9.700   0.9568   0.07883   0.07236  -0.0088   0.0981   1.0000
  10.000   0.9413   0.08482   0.07850  -0.0086   0.0991   1.0000
   9.750   0.9476   0.07981   0.07346  -0.0089   0.1000   1.0000
   9.850   0.9484   0.08176   0.07541  -0.0088   0.0994   1.0000
   9.950   0.9459   0.08383   0.07749  -0.0087   0.0991   1.0000
  10.500   0.7173   0.10629   0.10016  -0.0259   0.1480   1.0000
  10.250   0.7457   0.09623   0.09028  -0.0196   0.1355   1.0000
  10.350   0.7437   0.09887   0.09292  -0.0203   0.1366   1.0000
  10.450   0.7423   0.10144   0.09549  -0.0209   0.1373   1.0000
  10.500   0.7419   0.10271   0.09676  -0.0212   0.1375   1.0000
  10.600   0.7414   0.10518   0.09922  -0.0217   0.1380   1.0000
  10.700   0.7411   0.10765   0.10169  -0.0222   0.1383   1.0000
  11.000   0.7894   0.13615   0.12947  -0.0533   0.2735   1.0000
  10.750   0.7720   0.12985   0.12309  -0.0533   0.2769   1.0000
  10.850   0.7754   0.13200   0.12525  -0.0536   0.2756   1.0000
  10.950   0.7829   0.13449   0.12777  -0.0535   0.2742   1.0000
  11.250   0.7706   0.13896   0.13217  -0.0560   0.2676   1.0000
  11.000   0.7894   0.13615   0.12947  -0.0533   0.2735   1.0000
  11.100   0.7838   0.13771   0.13098  -0.0543   0.2724   1.0000
  11.200   0.7722   0.13827   0.13148  -0.0557   0.2694   1.0000
  11.500   0.7872   0.14481   0.13806  -0.0557   0.2588   1.0000
  11.250   0.7706   0.13896   0.13216  -0.0560   0.2676   1.0000
  11.350   0.7727   0.14071   0.13392  -0.0563   0.2642   1.0000
  11.450   0.7922   0.14438   0.13766  -0.0550   0.2592   1.0000
  11.750   0.7944   0.14925   0.14251  -0.0558   0.2455   1.0000
  11.500   0.7872   0.14481   0.13806  -0.0557   0.2588   1.0000
  11.600   0.7774   0.14549   0.13869  -0.0571   0.2567   1.0000
  11.700   0.7747   0.14672   0.13991  -0.0578   0.2533   1.0000
  12.000   0.7829   0.15165   0.14485  -0.0580   0.2360   1.0000
  11.750   0.7944   0.14925   0.14251  -0.0557   0.2455   1.0000
  11.850   0.7862   0.15011   0.14333  -0.0572   0.2444   1.0000
  11.950   0.7791   0.15090   0.14409  -0.0583   0.2410   1.0000
  12.250   0.7845   0.15594   0.14912  -0.0592   0.2283   1.0000
  12.000   0.7996   0.15336   0.14663  -0.0561   0.2328   1.0000
  12.100   0.7976   0.15508   0.14832  -0.0570   0.2318   1.0000
  12.200   0.7875   0.15551   0.14870  -0.0586   0.2300   1.0000
  12.500   0.8045   0.16200   0.15533  -0.0585   0.2194   1.0000
  12.250   0.7845   0.15594   0.14912  -0.0592   0.2283   1.0000
  12.350   0.7848   0.15734   0.15051  -0.0598   0.2248   1.0000
  12.450   0.7923   0.15954   0.15273  -0.0595   0.2213   1.0000
  12.750   0.7919   0.16438   0.15760  -0.0616   0.2150   1.0000
  12.500   0.8045   0.16200   0.15532  -0.0585   0.2194   1.0000
  12.600   0.8026   0.16371   0.15699  -0.0594   0.2181   1.0000
  12.700   0.7945   0.16404   0.15728  -0.0610   0.2165   1.0000
  13.000   0.8119   0.17067   0.16397  -0.0609   0.2059   1.0000
  12.750   0.7918   0.16438   0.15761  -0.0616   0.2150   1.0000
  12.850   0.7920   0.16572   0.15894  -0.0622   0.2113   1.0000
  12.950   0.7995   0.16797   0.16121  -0.0620   0.2078   1.0000
  13.250   0.8015   0.17283   0.16604  -0.0640   0.2024   1.0000
  13.000   0.8200   0.17221   0.16552  -0.0600   0.2053   1.0000
  13.100   0.8123   0.17252   0.16579  -0.0617   0.2048   1.0000
  13.200   0.8039   0.17262   0.16584  -0.0634   0.2034   1.0000
  13.500   0.8221   0.17952   0.17277  -0.0632   0.1915   1.0000
  13.250   0.8016   0.17283   0.16604  -0.0640   0.2024   1.0000
  13.350   0.8002   0.17386   0.16705  -0.0648   0.1988   1.0000
  13.450   0.8082   0.17610   0.16932  -0.0645   0.1942   1.0000
  13.750   0.8086   0.18030   0.17347  -0.0668   0.1870   1.0000
  13.500   0.8221   0.17952   0.17277  -0.0632   0.1915   1.0000
  13.600   0.8163   0.17986   0.17308  -0.0647   0.1908   1.0000
  13.700   0.8098   0.17995   0.17313  -0.0663   0.1888   1.0000
  14.000   0.8247   0.18621   0.17941  -0.0666   0.1774   1.0000
  13.750   0.8086   0.18031   0.17347  -0.0668   0.1870   1.0000
  13.850   0.8118   0.18177   0.17495  -0.0671   0.1828   1.0000
  13.950   0.8281   0.18627   0.17948  -0.0658   0.1778   1.0000
  14.250   0.8193   0.18779   0.18094  -0.0695   0.1709   1.0000
  14.000   0.8247   0.18621   0.17941  -0.0666   0.1774   1.0000
  14.100   0.8196   0.18632   0.17948  -0.0682   0.1759   1.0000
  14.200   0.8184   0.18716   0.18030  -0.0692   0.1735   1.0000
  14.500   0.8428   0.19580   0.18899  -0.0685   0.1646   1.0000
  14.250   0.8194   0.18779   0.18093  -0.0695   0.1709   1.0000
  14.350   0.8259   0.18986   0.18302  -0.0693   0.1677   1.0000
  14.450   0.8464   0.19605   0.18927  -0.0676   0.1648   1.0000
  14.750   0.8318   0.19584   0.18895  -0.0725   0.1612   1.0000
  14.500   0.8428   0.19580   0.18899  -0.0685   0.1646   1.0000
  14.600   0.8368   0.19550   0.18866  -0.0702   0.1640   1.0000
  14.700   0.8323   0.19548   0.18860  -0.0719   0.1623   1.0000
  15.000   0.8403   0.19977   0.19289  -0.0736   0.1545   1.0000
  14.750   0.8318   0.19583   0.18894  -0.0725   0.1612   1.0000
  14.850   0.8330   0.19701   0.19011  -0.0733   0.1584   1.0000
  14.950   0.8370   0.19868   0.19179  -0.0736   0.1557   1.0000
  15.250   0.8550   0.20641   0.19954  -0.0739   0.1509   1.0000
  15.000   0.8403   0.19977   0.19289  -0.0736   0.1545   1.0000
  15.100   0.8637   0.20734   0.20052  -0.0713   0.1516   1.0000
  15.200   0.8573   0.20660   0.19975  -0.0731   0.1512   1.0000
  15.500   0.8498   0.20700   0.20006  -0.0776   0.1467   1.0000
  15.250   0.8550   0.20641   0.19954  -0.0739   0.1509   1.0000
  15.350   0.8506   0.20607   0.19917  -0.0757   0.1499   1.0000
  15.450   0.8494   0.20652   0.19960  -0.0771   0.1480   1.0000
  15.750   0.8601   0.21122   0.20431  -0.0785   0.1408   1.0000
  15.500   0.8498   0.20700   0.20006  -0.0776   0.1467   1.0000
  15.600   0.8522   0.20830   0.20137  -0.0783   0.1444   1.0000
  15.700   0.8568   0.21009   0.20317  -0.0786   0.1419   1.0000
  16.000   0.8708   0.21676   0.20983  -0.0795   0.1373   1.0000
  15.750   0.8601   0.21122   0.20431  -0.0785   0.1408   1.0000
  15.850   0.8765   0.21756   0.21068  -0.0769   0.1380   1.0000
  15.950   0.8724   0.21695   0.21004  -0.0787   0.1376   1.0000
  16.250   0.8698   0.21786   0.21089  -0.0828   0.1324   1.0000
  16.000   0.8708   0.21676   0.20983  -0.0795   0.1373   1.0000
  16.100   0.8680   0.21652   0.20956  -0.0812   0.1357   1.0000
  16.200   0.8687   0.21729   0.21032  -0.0824   0.1337   1.0000
  16.500   0.8948   0.22779   0.22088  -0.0811   0.1249   1.0000
  16.250   0.8698   0.21786   0.21089  -0.0828   0.1324   1.0000
  16.350   0.8736   0.21937   0.21241  -0.0833   0.1294   1.0000
  16.450   0.8827   0.22248   0.21555  -0.0826   0.1264   1.0000
  16.750   0.8886   0.22669   0.21971  -0.0854   0.1235   1.0000
  16.500   0.8949   0.22778   0.22087  -0.0811   0.1249   1.0000
  16.600   0.8922   0.22732   0.22039  -0.0827   0.1246   1.0000
  16.700   0.8895   0.22680   0.21983  -0.0845   0.1240   1.0000
  17.000   0.8913   0.22849   0.22148  -0.0882   0.1183   1.0000
  16.750   0.8886   0.22668   0.21970  -0.0854   0.1235   1.0000
  16.850   0.8879   0.22688   0.21988  -0.0868   0.1217   1.0000
  16.950   0.8898   0.22785   0.22084  -0.0879   0.1194   1.0000
  17.250   0.9046   0.23371   0.22674  -0.0886   0.1134   1.0000
  17.000   0.8913   0.22849   0.22148  -0.0882   0.1183   1.0000
  17.100   0.8950   0.22998   0.22298  -0.0888   0.1163   1.0000
  17.200   0.9007   0.23217   0.22518  -0.0888   0.1142   1.0000
  17.500   0.9166   0.24022   0.23324  -0.0895   0.1114   1.0000
  17.250   0.9046   0.23371   0.22674  -0.0886   0.1134   1.0000
  17.350   0.9200   0.24135   0.23441  -0.0869   0.1118   1.0000
  17.450   0.9177   0.24059   0.23362  -0.0886   0.1116   1.0000
  17.750   0.9149   0.23985   0.23281  -0.0936   0.1091   1.0000
  17.500   0.9166   0.24022   0.23324  -0.0895   0.1114   1.0000
  17.600   0.9150   0.23966   0.23265  -0.0913   0.1108   1.0000
  17.700   0.9147   0.23967   0.23264  -0.0929   0.1099   1.0000
  18.000   0.9211   0.24256   0.23551  -0.0960   0.1054   1.0000
  17.750   0.9149   0.23985   0.23281  -0.0936   0.1091   1.0000
  17.850   0.9169   0.24075   0.23371  -0.0947   0.1077   1.0000
  17.950   0.9196   0.24193   0.23488  -0.0956   0.1061   1.0000
  18.250   0.9311   0.24665   0.23970  -0.0972   0.1015   1.0000
  18.000   0.9211   0.24256   0.23551  -0.0960   0.1054   1.0000
  18.100   0.9246   0.24400   0.23695  -0.0966   0.1038   1.0000
  18.200   0.9288   0.24571   0.23875  -0.0970   0.1021   1.0000
  18.500   0.9514   0.25751   0.25060  -0.0962   0.0987   1.0000
  18.250   0.9311   0.24667   0.23972  -0.0972   0.1015   1.0000
  18.350   0.9377   0.24961   0.24268  -0.0970   0.1001   1.0000
  18.450   0.9521   0.25798   0.25108  -0.0954   0.0988   1.0000
  18.750   0.9492   0.25576   0.24879  -0.1004   0.0978   1.0000
  18.500   0.9514   0.25751   0.25060  -0.0962   0.0987   1.0000
  18.600   0.9504   0.25679   0.24985  -0.0978   0.0985   1.0000
  18.700   0.9492   0.25591   0.24895  -0.0996   0.0981   1.0000
  19.000   0.9524   0.25668   0.24968  -0.1039   0.0952   1.0000
  18.750   0.9492   0.25577   0.24880  -0.1004   0.0978   1.0000
  18.850   0.9497   0.25571   0.24872  -0.1020   0.0970   1.0000
  18.950   0.9513   0.25625   0.24925  -0.1033   0.0958   1.0000
  19.250   0.9598   0.25967   0.25267  -0.1061   0.0918   1.0000
  19.000   0.9524   0.25668   0.24968  -0.1039   0.0952   1.0000
  19.100   0.9552   0.25779   0.25079  -0.1049   0.0938   1.0000
  19.200   0.9582   0.25901   0.25201  -0.1057   0.0924   1.0000
  19.500   0.9694   0.26356   0.25658  -0.1075   0.0888   1.0000
  19.250   0.9598   0.25967   0.25267  -0.1061   0.0918   1.0000
  19.350   0.9634   0.26108   0.25408  -0.1067   0.0905   1.0000
  19.450   0.9673   0.26269   0.25570  -0.1073   0.0893   1.0000
  19.750   0.9917   0.27738   0.27046  -0.1057   0.0859   1.0000
  19.500   0.9694   0.26357   0.25658  -0.1075   0.0888   1.0000
  19.600   0.9745   0.26594   0.25897  -0.1077   0.0876   1.0000
  19.700   0.9839   0.27160   0.26467  -0.1067   0.0864   1.0000
  20.000   0.9910   0.27516   0.26819  -0.1098   0.0854   1.0000
  19.750   0.9917   0.27738   0.27046  -0.1057   0.0859   1.0000
  19.850   0.9915   0.27659   0.26965  -0.1073   0.0858   1.0000
  19.950   0.9908   0.27541   0.26844  -0.1090   0.0855   1.0000
   0.000   0.0285   0.01697   0.00646  -0.0172   1.0000   1.0000
   0.250   0.0480   0.01726   0.00659  -0.0165   1.0000   1.0000
   0.150   0.0402   0.01714   0.00655  -0.0167   1.0000   1.0000
   0.050   0.0324   0.01703   0.00649  -0.0170   1.0000   1.0000
  -0.250   0.0088   0.01672   0.00635  -0.0179   1.0000   1.0000
   0.000   0.0285   0.01697   0.00646  -0.0172   1.0000   1.0000
  -0.100   0.0206   0.01687   0.00641  -0.0174   1.0000   1.0000
  -0.200   0.0128   0.01677   0.00636  -0.0177   1.0000   1.0000
  -0.500  -0.0109   0.01651   0.00630  -0.0187   1.0000   1.0000
  -0.250   0.0088   0.01672   0.00635  -0.0179   1.0000   1.0000
  -0.350   0.0009   0.01663   0.00632  -0.0182   1.0000   1.0000
  -0.450  -0.0070   0.01655   0.00630  -0.0185   1.0000   1.0000
  -0.750  -0.0306   0.01633   0.00631  -0.0195   1.0000   1.0000
  -0.500  -0.0109   0.01651   0.00630  -0.0187   1.0000   1.0000
  -0.600  -0.0188   0.01643   0.00630  -0.0190   1.0000   1.0000
  -0.700  -0.0267   0.01636   0.00630  -0.0193   1.0000   1.0000
  -1.000  -0.0503   0.01618   0.00637  -0.0204   1.0000   1.0000
  -0.750  -0.0306   0.01633   0.00631  -0.0195   1.0000   1.0000
  -0.850  -0.0385   0.01626   0.00633  -0.0199   1.0000   1.0000
  -0.950  -0.0463   0.01620   0.00636  -0.0202   1.0000   1.0000
  -1.250  -0.0696   0.01606   0.00655  -0.0214   1.0000   1.0000
  -1.000  -0.0502   0.01618   0.00642  -0.0204   1.0000   1.0000
  -1.100  -0.0580   0.01613   0.00646  -0.0208   1.0000   1.0000
  -1.200  -0.0657   0.01608   0.00652  -0.0212   1.0000   1.0000
  -1.500  -0.0885   0.01598   0.00675  -0.0224   1.0000   1.0000
  -1.250  -0.0696   0.01606   0.00655  -0.0214   1.0000   1.0000
  -1.350  -0.0772   0.01602   0.00662  -0.0218   1.0000   1.0000
  -1.450  -0.0848   0.01599   0.00670  -0.0222   1.0000   1.0000
  -1.750  -0.1067   0.01593   0.00701  -0.0236   1.0000   1.0000
  -1.500  -0.0885   0.01598   0.00675  -0.0224   1.0000   1.0000
  -1.600  -0.0959   0.01595   0.00684  -0.0229   1.0000   1.0000
  -1.700  -0.1031   0.01593   0.00695  -0.0233   1.0000   1.0000
  -2.000  -0.1235   0.01593   0.00736  -0.0249   1.0000   1.0000
  -1.750  -0.1067   0.01593   0.00701  -0.0236   1.0000   1.0000
  -1.850  -0.1136   0.01592   0.00714  -0.0241   1.0000   1.0000
  -1.950  -0.1203   0.01592   0.00729  -0.0246   1.0000   1.0000
  -2.250  -0.1378   0.01599   0.00781  -0.0265   1.0000   1.0000
  -2.000  -0.1235   0.01593   0.00736  -0.0249   1.0000   1.0000
  -2.100  -0.1297   0.01594   0.00753  -0.0255   1.0000   1.0000
  -2.200  -0.1353   0.01597   0.00771  -0.0262   1.0000   1.0000
  -2.500  -0.1459   0.01617   0.00838  -0.0288   1.0000   1.0000
  -2.250  -0.1378   0.01599   0.00781  -0.0265   1.0000   1.0000
  -2.350  -0.1421   0.01604   0.00801  -0.0273   1.0000   1.0000
  -2.450  -0.1451   0.01612   0.00825  -0.0283   1.0000   1.0000
  -2.500  -0.1459   0.01617   0.00838  -0.0288   1.0000   1.0000
  -2.600  -0.1455   0.01631   0.00872  -0.0301   1.0000   1.0000
  -2.700  -0.1415   0.01652   0.00903  -0.0317   1.0000   1.0000
  -3.000  -0.2481   0.01900   0.00984  -0.0270   1.0000   0.3776
  -2.750  -0.2450   0.01687   0.00956  -0.0197   1.0000   0.6774
  -2.850  -0.2446   0.01746   0.00956  -0.0235   1.0000   0.5641
  -2.950  -0.2461   0.01839   0.00968  -0.0262   1.0000   0.4386
  -3.250  -0.2680   0.02173   0.01140  -0.0290   1.0000   0.2013
  -3.000  -0.2481   0.01900   0.00984  -0.0270   1.0000   0.3777
  -3.100  -0.2547   0.02026   0.01038  -0.0280   1.0000   0.2801
  -3.200  -0.2638   0.02132   0.01110  -0.0286   1.0000   0.2221
  -3.500  -0.2930   0.02390   0.01339  -0.0304   1.0000   0.1541
  -3.250  -0.2680   0.02173   0.01140  -0.0290   1.0000   0.2013
  -3.350  -0.2783   0.02263   0.01220  -0.0295   1.0000   0.1757
  -3.450  -0.2883   0.02348   0.01299  -0.0301   1.0000   0.1606
  -3.750  -0.3162   0.02583   0.01536  -0.0318   1.0000   0.1266
  -3.500  -0.2930   0.02390   0.01339  -0.0304   1.0000   0.1541
  -3.600  -0.3020   0.02460   0.01406  -0.0309   1.0000   0.1409
  -3.700  -0.3108   0.02543   0.01479  -0.0315   1.0000   0.1293
  -4.000  -0.3401   0.02822   0.01792  -0.0332   1.0000   0.1150
  -3.750  -0.3162   0.02583   0.01536  -0.0318   1.0000   0.1266
  -3.850  -0.3263   0.02670   0.01637  -0.0324   1.0000   0.1220
  -3.950  -0.3353   0.02768   0.01729  -0.0329   1.0000   0.1173
  -4.250  -0.3615   0.03049   0.02038  -0.0343   1.0000   0.1029
  -4.000  -0.3401   0.02822   0.01792  -0.0332   1.0000   0.1150
  -4.100  -0.3497   0.02904   0.01910  -0.0337   1.0000   0.1104
  -4.200  -0.3579   0.02977   0.01981  -0.0342   1.0000   0.1052
  -4.500  -0.3844   0.03323   0.02381  -0.0357   1.0000   0.1007
  -4.250  -0.3615   0.03049   0.02038  -0.0343   1.0000   0.1029
  -4.350  -0.3710   0.03146   0.02170  -0.0349   1.0000   0.1012
  -4.450  -0.3801   0.03264   0.02312  -0.0354   1.0000   0.1007
  -4.750  -0.4053   0.03654   0.02760  -0.0369   1.0000   0.1013
  -4.500  -0.3844   0.03323   0.02381  -0.0357   1.0000   0.1007
  -4.600  -0.3930   0.03450   0.02528  -0.0362   1.0000   0.1007
  -4.700  -0.4013   0.03586   0.02684  -0.0366   1.0000   0.1011
  -5.000  -0.4241   0.04015   0.03149  -0.0379   1.0000   0.1027
  -4.750  -0.4053   0.03654   0.02760  -0.0369   1.0000   0.1013
  -4.850  -0.4130   0.03795   0.02914  -0.0373   1.0000   0.1020
  -4.950  -0.4205   0.03940   0.03068  -0.0377   1.0000   0.1026
  -5.250  -0.4415   0.04470   0.03711  -0.0380   1.0000   0.1114
  -5.000  -0.4241   0.04015   0.03149  -0.0379   1.0000   0.1027
  -5.100  -0.4320   0.04204   0.03416  -0.0379   1.0000   0.1082
  -5.200  -0.4384   0.04382   0.03615  -0.0380   1.0000   0.1105
  -5.500  -0.4561   0.04878   0.04141  -0.0386   1.0000   0.1147
  -5.250  -0.4415   0.04470   0.03711  -0.0380   1.0000   0.1114
  -5.350  -0.4475   0.04633   0.03885  -0.0382   1.0000   0.1130
  -5.450  -0.4534   0.04794   0.04052  -0.0385   1.0000   0.1145
  -5.750  -0.4700   0.05583   0.04922  -0.0355   1.0000   0.1464
  -5.500  -0.4561   0.04878   0.04141  -0.0386   1.0000   0.1147
  -5.600  -0.4618   0.05039   0.04304  -0.0389   1.0000   0.1157
  -6.000  -0.4526   0.07291   0.06694   0.0014   1.0000   0.3808
  -5.750  -0.4502   0.06982   0.06393   0.0026   1.0000   0.3958
  -6.200  -0.4541   0.07533   0.06930   0.0005   1.0000   0.3672
  -6.500  -0.4714   0.08026   0.07425  -0.0018   1.0000   0.3492
  -6.750  -0.4576   0.08211   0.07593  -0.0023   1.0000   0.3313
  -6.500  -0.4714   0.08026   0.07425  -0.0018   1.0000   0.3492
  -6.700  -0.4740   0.08297   0.07688  -0.0028   1.0000   0.3347
  -7.000  -0.4564   0.08486   0.07858  -0.0034   1.0000   0.3139
  -6.750  -0.4576   0.08211   0.07593  -0.0023   1.0000   0.3313
  -6.850  -0.4589   0.08318   0.07697  -0.0027   1.0000   0.3251
  -6.950  -0.4640   0.08496   0.07874  -0.0032   1.0000   0.3193
  -7.250  -0.4598   0.08788   0.08154  -0.0043   1.0000   0.2988
  -7.100  -0.4727   0.08744   0.08120  -0.0044   1.0000   0.3067
  -7.200  -0.4595   0.08741   0.08108  -0.0040   1.0000   0.3033
  -7.500  -0.4823   0.09277   0.08643  -0.0064   1.0000   0.2797
  -7.250  -0.4849   0.09005   0.08382  -0.0058   1.0000   0.2937
  -7.350  -0.4715   0.09012   0.08379  -0.0051   1.0000   0.2926
  -7.450  -0.4621   0.09038   0.08396  -0.0049   1.0000   0.2850
  -7.750  -0.4745   0.09502   0.08855  -0.0064   1.0000   0.2649
  -7.500  -0.4823   0.09278   0.08643  -0.0064   1.0000   0.2797
  -7.600  -0.4704   0.09294   0.08651  -0.0055   1.0000   0.2783
  -7.700  -0.4668   0.09348   0.08701  -0.0055   1.0000   0.2703
  -8.000  -0.4820   0.09862   0.09211  -0.0070   1.0000   0.2518
  -7.750  -0.4745   0.09502   0.08855  -0.0064   1.0000   0.2649
  -7.850  -0.4660   0.09532   0.08879  -0.0056   1.0000   0.2609
  -7.950  -0.4705   0.09667   0.09014  -0.0059   1.0000   0.2562
  -8.250  -0.4935   0.10270   0.09616  -0.0079   1.0000   0.2388
  -8.000  -0.4820   0.09862   0.09211  -0.0070   1.0000   0.2518
  -8.100  -0.4712   0.09873   0.09214  -0.0058   1.0000   0.2491
  -8.200  -0.4762   0.10006   0.09346  -0.0064   1.0000   0.2416
  -8.500  -0.4777   0.10385   0.09716  -0.0059   1.0000   0.2286
  -8.250  -0.4935   0.10270   0.09616  -0.0079   1.0000   0.2388
  -8.350  -0.4780   0.10234   0.09569  -0.0062   1.0000   0.2368
  -8.450  -0.4733   0.10293   0.09624  -0.0055   1.0000   0.2315
  -8.750  -0.4781   0.10708   0.10031  -0.0051   1.0000   0.2209
  -8.500  -0.4777   0.10385   0.09716  -0.0059   1.0000   0.2286
  -8.600  -0.4953   0.10727   0.10062  -0.0074   1.0000   0.2250
  -8.700  -0.4830   0.10705   0.10032  -0.0058   1.0000   0.2233
  -9.000  -0.4989   0.11254   0.10579  -0.0065   1.0000   0.2112
  -8.750  -0.4781   0.10708   0.10031  -0.0051   1.0000   0.2209
  -8.850  -0.4791   0.10815   0.10136  -0.0049   1.0000   0.2172
  -8.950  -0.4990   0.11172   0.10500  -0.0068   1.0000   0.2120
  -9.250  -0.4843   0.11353   0.10666  -0.0039   1.0000   0.2040
  -9.000  -0.4989   0.11254   0.10579  -0.0065   1.0000   0.2112
  -9.100  -0.4858   0.11219   0.10535  -0.0047   1.0000   0.2089
  -9.200  -0.4832   0.11294   0.10607  -0.0040   1.0000   0.2056
  -9.500  -0.4976   0.11836   0.11147  -0.0043   1.0000   0.1967
  -9.250  -0.4843   0.11353   0.10666  -0.0039   1.0000   0.2040
  -9.350  -0.4980   0.11628   0.10944  -0.0052   1.0000   0.1990
  -9.450  -0.5018   0.11836   0.11149  -0.0051   1.0000   0.1973
  -9.750  -0.4938   0.12052   0.11356  -0.0027   1.0000   0.1882
  -9.500  -0.4976   0.11836   0.11147  -0.0043   1.0000   0.1967
  -9.600  -0.4898   0.11851   0.11156  -0.0030   1.0000   0.1934
  -9.700  -0.4909   0.11963   0.11267  -0.0026   1.0000   0.1904
 -10.000  -0.5044   0.12513   0.11814  -0.0027   1.0000   0.1829
  -9.750  -0.4938   0.12052   0.11356  -0.0027   1.0000   0.1882
  -9.950  -0.5091   0.12522   0.11826  -0.0035   1.0000   0.1836
 -10.250  -0.5006   0.12716   0.12011  -0.0009   1.0000   0.1755
 -10.000  -0.5044   0.12513   0.11814  -0.0027   1.0000   0.1829
 -10.100  -0.4982   0.12537   0.11833  -0.0014   1.0000   0.1802
 -10.200  -0.4987   0.12642   0.11937  -0.0009   1.0000   0.1774
 -10.500  -0.5162   0.13269   0.12562  -0.0013   1.0000   0.1698
 -10.250  -0.5005   0.12717   0.12011  -0.0009   1.0000   0.1755
 -10.350  -0.5146   0.13031   0.12329  -0.0021   1.0000   0.1716
 -10.450  -0.5203   0.13275   0.12571  -0.0022   1.0000   0.1702
 -10.750  -0.5079   0.13405   0.12689   0.0012   1.0000   0.1638
 -10.500  -0.5162   0.13269   0.12562  -0.0013   1.0000   0.1698
 -10.600  -0.5103   0.13280   0.12569   0.0000   1.0000   0.1684
 -10.700  -0.5073   0.13343   0.12629   0.0010   1.0000   0.1652
 -11.000  -0.5341   0.14144   0.13432  -0.0006   1.0000   0.1568
 -10.750  -0.5079   0.13405   0.12689   0.0012   1.0000   0.1638
 -10.850  -0.5116   0.13551   0.12836   0.0014   1.0000   0.1613
 -10.950  -0.5215   0.13805   0.13092   0.0007   1.0000   0.1585
 -11.250  -0.5201   0.14155   0.13433   0.0029   1.0000   0.1542
 -11.000  -0.5341   0.14144   0.13433  -0.0006   1.0000   0.1568
 -11.100  -0.5286   0.14147   0.13431   0.0008   1.0000   0.1564
 -11.200  -0.5222   0.14142   0.13422   0.0023   1.0000   0.1552
 -11.500  -0.5230   0.14437   0.13712   0.0043   1.0000   0.1483
 -11.250  -0.5201   0.14155   0.13434   0.0029   1.0000   0.1542
 -11.350  -0.5193   0.14241   0.13518   0.0037   1.0000   0.1520
 -11.450  -0.5213   0.14365   0.13641   0.0041   1.0000   0.1494
 -11.750  -0.5448   0.15146   0.14430   0.0032   1.0000   0.1430
 -11.500  -0.5230   0.14437   0.13712   0.0043   1.0000   0.1483
 -11.600  -0.5305   0.14655   0.13931   0.0039   1.0000   0.1455
 -11.700  -0.5478   0.15153   0.14440   0.0024   1.0000   0.1432
 -12.000  -0.5345   0.15174   0.14450   0.0064   1.0000   0.1404
 -11.750  -0.5448   0.15146   0.14430   0.0032   1.0000   0.1430
 -11.850  -0.5386   0.15128   0.14408   0.0047   1.0000   0.1423
 -11.950  -0.5350   0.15145   0.14422   0.0059   1.0000   0.1411
 -12.250  -0.5382   0.15463   0.14736   0.0078   1.0000   0.1350
 -12.000  -0.5346   0.15174   0.14450   0.0064   1.0000   0.1404
 -12.100  -0.5347   0.15265   0.14540   0.0072   1.0000   0.1384
 -12.200  -0.5366   0.15387   0.14661   0.0077   1.0000   0.1361
 -12.500  -0.5642   0.16311   0.15587   0.0063   1.0000   0.1297
 -12.250  -0.5382   0.15463   0.14736   0.0078   1.0000   0.1350
 -12.350  -0.5438   0.15655   0.14929   0.0078   1.0000   0.1326
 -12.450  -0.5668   0.16321   0.15600   0.0056   1.0000   0.1298
 -12.750  -0.5545   0.16296   0.15564   0.0096   1.0000   0.1283
 -12.500  -0.5642   0.16311   0.15587   0.0063   1.0000   0.1297
 -12.600  -0.5592   0.16286   0.15559   0.0078   1.0000   0.1293
 -12.700  -0.5557   0.16289   0.15558   0.0090   1.0000   0.1287
 -13.000  -0.5546   0.16482   0.15746   0.0118   1.0000   0.1242
 -12.750  -0.5545   0.16296   0.15565   0.0096   1.0000   0.1283
 -12.850  -0.5529   0.16334   0.15600   0.0107   1.0000   0.1268
 -12.950  -0.5536   0.16422   0.15687   0.0115   1.0000   0.1248
 -13.250  -0.5656   0.16910   0.16175   0.0122   1.0000   0.1186
 -13.000  -0.5546   0.16482   0.15746   0.0118   1.0000   0.1242
 -13.100  -0.5572   0.16616   0.15880   0.0122   1.0000   0.1220
 -13.200  -0.5618   0.16784   0.16049   0.0124   1.0000   0.1198
 -13.500  -0.5787   0.17504   0.16768   0.0127   1.0000   0.1157
 -13.250  -0.5656   0.16911   0.16176   0.0122   1.0000   0.1186
 -13.350  -0.5843   0.17551   0.16819   0.0107   1.0000   0.1162
 -13.450  -0.5789   0.17479   0.16743   0.0122   1.0000   0.1158
 -13.750  -0.5753   0.17561   0.16819   0.0155   1.0000   0.1137
 -13.500  -0.5787   0.17504   0.16768   0.0127   1.0000   0.1157
 -13.600  -0.5770   0.17519   0.16780   0.0138   1.0000   0.1153
 -13.700  -0.5757   0.17539   0.16798   0.0150   1.0000   0.1144
 -14.000  -0.5799   0.17818   0.17074   0.0173   1.0000   0.1085
 -13.750  -0.5753   0.17561   0.16818   0.0155   1.0000   0.1137
 -13.850  -0.5759   0.17632   0.16888   0.0164   1.0000   0.1115
 -13.950  -0.5784   0.17747   0.17002   0.0170   1.0000   0.1100
 -14.250  -0.6081   0.18876   0.18136   0.0155   1.0000   0.1028
 -14.000  -0.5799   0.17818   0.17074   0.0173   1.0000   0.1084
 -14.100  -0.5836   0.17959   0.17214   0.0177   1.0000   0.1072
 -14.200  -0.5898   0.18186   0.17443   0.0176   1.0000   0.1050
 -14.500  -0.6032   0.18838   0.18092   0.0186   1.0000   0.1022
 -14.250  -0.6081   0.18876   0.18136   0.0155   1.0000   0.1028
 -14.350  -0.6074   0.18906   0.18164   0.0166   1.0000   0.1027
 -14.450  -0.6034   0.18826   0.18081   0.0180   1.0000   0.1024
 -14.750  -0.6023   0.18886   0.18135   0.0214   1.0000   0.1004
 -14.500  -0.6033   0.18837   0.18091   0.0186   1.0000   0.1022
 -14.600  -0.6018   0.18821   0.18073   0.0198   1.0000   0.1017
 -14.700  -0.6016   0.18851   0.18101   0.0210   1.0000   0.1008
 -15.000  -0.6075   0.19129   0.18376   0.0234   1.0000   0.0966
 -14.750  -0.6023   0.18886   0.18135   0.0214   1.0000   0.1004
 -14.850  -0.6035   0.18957   0.18205   0.0224   1.0000   0.0986
 -14.950  -0.6061   0.19069   0.18316   0.0231   1.0000   0.0971
 -15.250  -0.6169   0.19498   0.18746   0.0245   1.0000   0.0928
 -15.000  -0.6075   0.19129   0.18376   0.0234   1.0000   0.0966
 -15.100  -0.6107   0.19258   0.18506   0.0240   1.0000   0.0952
 -15.200  -0.6145   0.19410   0.18657   0.0244   1.0000   0.0936
 -15.500  -0.6415   0.20618   0.19869   0.0233   1.0000   0.0895
 -15.250  -0.6169   0.19498   0.18746   0.0245   1.0000   0.0928
 -15.350  -0.6232   0.19753   0.19001   0.0245   1.0000   0.0912
 -15.450  -0.6426   0.20643   0.19895   0.0227   1.0000   0.0895
 -15.750  -0.6391   0.20540   0.19785   0.0264   1.0000   0.0890
 -15.500  -0.6415   0.20617   0.19868   0.0233   1.0000   0.0895
 -15.600  -0.6400   0.20575   0.19823   0.0246   1.0000   0.0893
 -15.700  -0.6392   0.20545   0.19791   0.0258   1.0000   0.0891
 -16.000  -0.6400   0.20564   0.19805   0.0293   1.0000   0.0877
 -15.750  -0.6391   0.20540   0.19786   0.0264   1.0000   0.0890
 -15.850  -0.6389   0.20533   0.19777   0.0276   1.0000   0.0886
 -15.950  -0.6397   0.20550   0.19793   0.0288   1.0000   0.0881
 -16.250  -0.6455   0.20773   0.20012   0.0317   1.0000   0.0850
 -16.000  -0.6400   0.20564   0.19805   0.0293   1.0000   0.0877
 -16.100  -0.6417   0.20626   0.19866   0.0304   1.0000   0.0867
 -16.200  -0.6442   0.20718   0.19958   0.0313   1.0000   0.0856
 -16.500  -0.6533   0.21075   0.20313   0.0334   1.0000   0.0823
 -16.250  -0.6455   0.20773   0.20012   0.0317   1.0000   0.0850
 -16.350  -0.6485   0.20885   0.20123   0.0324   1.0000   0.0840
 -16.450  -0.6516   0.21009   0.20247   0.0331   1.0000   0.0828
 -16.750  -0.6627   0.21437   0.20682   0.0348   1.0000   0.0796
 -16.500  -0.6533   0.21075   0.20313   0.0334   1.0000   0.0823
 -16.600  -0.6568   0.21208   0.20446   0.0340   1.0000   0.0812
 -16.700  -0.6605   0.21350   0.20596   0.0346   1.0000   0.0802
 -17.000  -0.6782   0.22169   0.21418   0.0347   1.0000   0.0770
 -16.750  -0.6627   0.21437   0.20683   0.0348   1.0000   0.0796
 -16.850  -0.6671   0.21616   0.20862   0.0351   1.0000   0.0786
 -16.950  -0.6728   0.21874   0.21122   0.0352   1.0000   0.0777
 -17.250  -0.6901   0.22814   0.22061   0.0359   1.0000   0.0761
 -17.100  -0.6899   0.22869   0.22118   0.0341   1.0000   0.0762
 -17.200  -0.6900   0.22834   0.22082   0.0353   1.0000   0.0762
 -17.500  -0.6912   0.22734   0.21977   0.0390   1.0000   0.0756
 -17.250  -0.6901   0.22814   0.22061   0.0359   1.0000   0.0761
 -17.350  -0.6898   0.22751   0.21995   0.0372   1.0000   0.0759
 -17.450  -0.6907   0.22739   0.21983   0.0384   1.0000   0.0757
 -17.750  -0.6953   0.22788   0.22028   0.0419   1.0000   0.0744
 -17.500  -0.6912   0.22735   0.21978   0.0390   1.0000   0.0756
 -17.600  -0.6924   0.22731   0.21972   0.0402   1.0000   0.0752
 -17.700  -0.6943   0.22763   0.22003   0.0414   1.0000   0.0747
 -18.000  -0.7021   0.23002   0.22240   0.0443   1.0000   0.0723
 -17.750  -0.6953   0.22788   0.22028   0.0419   1.0000   0.0744
 -17.850  -0.6978   0.22858   0.22097   0.0429   1.0000   0.0736
 -17.950  -0.7006   0.22950   0.22188   0.0438   1.0000   0.0727
 -18.250  -0.7101   0.23286   0.22523   0.0462   1.0000   0.0702
 -18.000  -0.7021   0.23002   0.22240   0.0443   1.0000   0.0723
 -18.100  -0.7053   0.23110   0.22347   0.0451   1.0000   0.0714
 -18.200  -0.7085   0.23227   0.22464   0.0459   1.0000   0.0705
 -18.500  -0.7189   0.23602   0.22840   0.0480   1.0000   0.0681
 -18.250  -0.7101   0.23286   0.22523   0.0462   1.0000   0.0702
 -18.350  -0.7136   0.23407   0.22645   0.0470   1.0000   0.0693
 -18.450  -0.7171   0.23541   0.22778   0.0477   1.0000   0.0684
 -18.750  -0.7283   0.23968   0.23206   0.0495   1.0000   0.0661
 -18.500  -0.7189   0.23602   0.22840   0.0480   1.0000   0.0681
 -18.600  -0.7224   0.23733   0.22971   0.0487   1.0000   0.0674
 -18.700  -0.7263   0.23887   0.23125   0.0493   1.0000   0.0665
 -19.000  -0.7401   0.24535   0.23776   0.0503   1.0000   0.0643
 -18.750  -0.7283   0.23968   0.23206   0.0495   1.0000   0.0661
 -18.850  -0.7323   0.24134   0.23373   0.0500   1.0000   0.0654
 -18.950  -0.7369   0.24349   0.23589   0.0504   1.0000   0.0647
 -19.250  -0.7569   0.25660   0.24901   0.0504   1.0000   0.0631
 -19.000  -0.7401   0.24535   0.23776   0.0503   1.0000   0.0643
 -19.100  -0.7557   0.25745   0.24989   0.0486   1.0000   0.0632
 -19.200  -0.7570   0.25724   0.24966   0.0497   1.0000   0.0632
 -19.500  -0.7596   0.25539   0.24776   0.0535   1.0000   0.0629
 -19.250  -0.7569   0.25660   0.24901   0.0504   1.0000   0.0631
 -19.350  -0.7578   0.25606   0.24846   0.0516   1.0000   0.0630
 -19.450  -0.7587   0.25546   0.24784   0.0529   1.0000   0.0629
 -19.750  -0.7639   0.25495   0.24730   0.0565   1.0000   0.0624
 -19.500  -0.7596   0.25538   0.24776   0.0535   1.0000   0.0629
 -19.600  -0.7610   0.25502   0.24738   0.0547   1.0000   0.0627
 -19.700  -0.7628   0.25485   0.24720   0.0560   1.0000   0.0625
 -20.000  -0.7701   0.25570   0.24803   0.0594   1.0000   0.0614
 -19.750  -0.7639   0.25495   0.24730   0.0565   1.0000   0.0624
 -19.850  -0.7661   0.25500   0.24734   0.0578   1.0000   0.0620
