  
       XFOIL         Version 6.99
  
 Calculated polar for: S8066 (10% version of S8065 w/ lower surface aer
  
 1 1 Reynolds number fixed          Mach number fixed         
  
 xtrf =   1.000 (top)        1.000 (bottom)  
 Mach =   0.000     Re =     0.050 e 6     Ncrit =   9.000
  
   alpha    CL        CD       CDp       CM     Top_Xtr  Bot_Xtr
  ------ -------- --------- --------- -------- -------- --------
   0.000  -0.0814   0.01982   0.00921   0.0023   1.0000   1.0000
   0.250  -0.0700   0.01995   0.00923   0.0040   1.0000   1.0000
   0.500  -0.0564   0.02014   0.00932   0.0054   1.0000   1.0000
   0.750  -0.0413   0.02039   0.00949   0.0064   1.0000   1.0000
   1.000  -0.0254   0.02070   0.00973   0.0073   1.0000   1.0000
   1.250  -0.0088   0.02106   0.01004   0.0080   1.0000   1.0000
   1.500   0.0080   0.02146   0.01041   0.0087   1.0000   1.0000
   1.750   0.0251   0.02192   0.01083   0.0092   1.0000   1.0000
   2.000   0.0422   0.02242   0.01132   0.0097   1.0000   1.0000
   2.250   0.0593   0.02297   0.01188   0.0100   1.0000   1.0000
   2.500   0.0764   0.02357   0.01250   0.0103   1.0000   1.0000
   2.750   0.0932   0.02423   0.01319   0.0105   1.0000   1.0000
   3.000   0.1099   0.02495   0.01396   0.0107   1.0000   1.0000
   3.250   0.1523   0.02636   0.01550   0.0058   0.9876   1.0000
   3.500   0.2091   0.02807   0.01739  -0.0016   0.9657   1.0000
   3.750   0.2686   0.02969   0.01928  -0.0088   0.9424   1.0000
   4.000   0.3198   0.03082   0.02067  -0.0141   0.9159   1.0000
   4.250   0.3785   0.03174   0.02195  -0.0199   0.8864   1.0000
   4.500   0.4308   0.03208   0.02266  -0.0236   0.8523   1.0000
   4.750   0.5067   0.03119   0.02236  -0.0287   0.8105   1.0000
   5.000   0.6057   0.02717   0.01917  -0.0322   0.7563   1.0000
   5.250   0.6580   0.02349   0.01604  -0.0283   0.6924   1.0000
   5.500   0.6856   0.02103   0.01331  -0.0204   0.5384   1.0000
   5.750   0.6863   0.02317   0.01359  -0.0135   0.3373   1.0000
   6.000   0.7038   0.02568   0.01529  -0.0114   0.2548   1.0000
   6.250   0.7301   0.02782   0.01712  -0.0106   0.2093   1.0000
   6.500   0.7614   0.03020   0.01947  -0.0104   0.1823   1.0000
   6.750   0.7884   0.03263   0.02174  -0.0100   0.1606   1.0000
   7.000   0.8155   0.03554   0.02479  -0.0094   0.1472   1.0000
   7.250   0.8360   0.03811   0.02764  -0.0081   0.1339   1.0000
   7.500   0.8519   0.04128   0.03151  -0.0059   0.1272   1.0000
   7.750   0.8691   0.04451   0.03486  -0.0047   0.1180   1.0000
   8.000   0.8788   0.04822   0.03921  -0.0023   0.1158   1.0000
   8.250   0.8843   0.05208   0.04362   0.0001   0.1136   1.0000
   8.500   0.8875   0.05599   0.04800   0.0022   0.1117   1.0000
   8.750   0.8881   0.06002   0.05236   0.0041   0.1103   1.0000
   9.000   0.8774   0.06484   0.05761   0.0061   0.1129   1.0000
   9.250   0.8675   0.06965   0.06268   0.0075   0.1156   1.0000
   9.500   0.8672   0.07486   0.06798   0.0082   0.1185   1.0000
   9.750   0.8217   0.07948   0.07284   0.0092   0.1239   1.0000
  10.000   0.7949   0.08560   0.07900   0.0076   0.1303   1.0000
  10.250   0.6503   0.11650   0.10947  -0.0309   0.3386   1.0000
  10.500   0.6609   0.12131   0.11431  -0.0313   0.3327   1.0000
  10.750   0.6812   0.12669   0.11976  -0.0305   0.3165   1.0000
  11.000   0.6619   0.12878   0.12174  -0.0320   0.3063   1.0000
  11.250   0.6672   0.13271   0.12570  -0.0321   0.2916   1.0000
  11.500   0.6664   0.13661   0.12957  -0.0329   0.2817   1.0000
  11.750   0.6826   0.14183   0.13483  -0.0328   0.2727   1.0000
  12.000   0.6922   0.14626   0.13926  -0.0328   0.2591   1.0000
  12.250   0.7031   0.15079   0.14380  -0.0326   0.2453   1.0000
  12.500   0.6830   0.15209   0.14500  -0.0355   0.2381   1.0000
  12.750   0.6936   0.15681   0.14973  -0.0358   0.2292   1.0000
  13.000   0.6998   0.16045   0.15337  -0.0366   0.2195   1.0000
  13.250   0.6983   0.16399   0.15687  -0.0383   0.2136   1.0000
  13.500   0.7152   0.16912   0.16204  -0.0382   0.2043   1.0000
  13.750   0.7076   0.17150   0.16435  -0.0407   0.1994   1.0000
  14.000   0.7341   0.17872   0.17164  -0.0395   0.1889   1.0000
  14.250   0.7177   0.17874   0.17156  -0.0432   0.1851   1.0000
  14.500   0.7423   0.18599   0.17888  -0.0422   0.1747   1.0000
  14.750   0.7286   0.18589   0.17869  -0.0459   0.1707   1.0000
  15.000   0.7442   0.19096   0.18384  -0.0459   0.1625   1.0000
  15.250   0.7471   0.19462   0.18746  -0.0480   0.1596   1.0000
  15.500   0.7462   0.19639   0.18920  -0.0505   0.1537   1.0000
  15.750   0.7788   0.20700   0.19990  -0.0486   0.1472   1.0000
  16.000   0.7650   0.20525   0.19806  -0.0529   0.1456   1.0000
  16.250   0.7658   0.20706   0.19983  -0.0556   0.1404   1.0000
  16.500   0.7800   0.21216   0.20497  -0.0559   0.1351   1.0000
  16.750   0.7895   0.21731   0.21011  -0.0573   0.1326   1.0000
  17.000   0.7871   0.21767   0.21042  -0.0608   0.1287   1.0000
  17.250   0.7962   0.22127   0.21403  -0.0620   0.1231   1.0000
  17.500   0.8150   0.22961   0.22240  -0.0617   0.1193   1.0000
  17.750   0.8104   0.22850   0.22123  -0.0658   0.1169   1.0000
  18.000   0.8161   0.23099   0.22372  -0.0681   0.1124   1.0000
  18.250   0.8293   0.23611   0.22892  -0.0686   0.1077   1.0000
  18.500   0.8442   0.24395   0.23676  -0.0691   0.1057   1.0000
  18.750   0.8416   0.24259   0.23535  -0.0731   0.1042   1.0000
  19.000   0.8464   0.24452   0.23726  -0.0759   0.1008   1.0000
  19.250   0.8546   0.24777   0.24052  -0.0777   0.0974   1.0000
  19.500   0.8668   0.25289   0.24567  -0.0785   0.0942   1.0000
  19.750   0.8839   0.26281   0.25562  -0.0784   0.0924   1.0000
  20.000   0.8824   0.26067   0.25342  -0.0825   0.0916   1.0000
   0.000  -0.0814   0.01982   0.00921   0.0023   1.0000   1.0000
  -0.250  -0.0895   0.01978   0.00927   0.0001   1.0000   1.0000
  -0.500  -0.0937   0.01983   0.00943  -0.0028   1.0000   1.0000
  -0.750  -0.0946   0.01996   0.00963  -0.0061   1.0000   1.0000
  -1.000  -0.0929   0.02013   0.00988  -0.0099   1.0000   1.0000
  -1.250  -0.0901   0.02034   0.01015  -0.0137   1.0000   1.0000
  -1.500  -0.0869   0.02056   0.01045  -0.0175   1.0000   1.0000
  -1.750  -0.0837   0.02081   0.01076  -0.0212   1.0000   1.0000
  -2.000  -0.0804   0.02107   0.01108  -0.0248   1.0000   1.0000
  -2.250  -0.0772   0.02136   0.01143  -0.0283   1.0000   1.0000
  -2.500  -0.0745   0.02169   0.01182  -0.0316   1.0000   1.0000
  -2.750  -0.0729   0.02206   0.01225  -0.0346   1.0000   1.0000
  -3.000  -0.0995   0.02282   0.01321  -0.0322   1.0000   0.9922
  -3.250  -0.4193   0.02217   0.01464   0.0160   1.0000   0.8840
  -3.500  -0.4627   0.02068   0.01357   0.0126   1.0000   0.8006
  -3.750  -0.4689   0.01984   0.01282   0.0040   1.0000   0.7047
  -4.000  -0.4669   0.01989   0.01175  -0.0065   1.0000   0.4789
  -4.250  -0.4739   0.02254   0.01274  -0.0109   1.0000   0.2907
  -4.500  -0.4929   0.02465   0.01434  -0.0128   1.0000   0.2188
  -4.750  -0.5141   0.02667   0.01616  -0.0146   1.0000   0.1763
  -5.000  -0.5351   0.02874   0.01820  -0.0163   1.0000   0.1477
  -5.250  -0.5550   0.03085   0.02028  -0.0179   1.0000   0.1280
  -5.500  -0.5746   0.03322   0.02309  -0.0198   1.0000   0.1173
  -5.750  -0.5914   0.03574   0.02590  -0.0216   1.0000   0.1086
  -6.000  -0.6069   0.03859   0.02925  -0.0238   1.0000   0.1059
  -6.250  -0.6193   0.04175   0.03288  -0.0261   1.0000   0.1052
  -6.500  -0.6283   0.04495   0.03652  -0.0284   1.0000   0.1050
  -6.750  -0.6336   0.04836   0.04036  -0.0309   1.0000   0.1052
  -7.000  -0.6356   0.05191   0.04428  -0.0332   1.0000   0.1060
  -7.250  -0.6359   0.05575   0.04840  -0.0353   1.0000   0.1084
  -7.500  -0.6383   0.05969   0.05247  -0.0371   1.0000   0.1108
  -7.750  -0.6202   0.06479   0.05803  -0.0381   1.0000   0.1213
  -8.000  -0.6032   0.07056   0.06401  -0.0374   1.0000   0.1349
  -8.250  -0.4809   0.09104   0.08429  -0.0070   1.0000   0.3494
  -8.500  -0.5029   0.09597   0.08926  -0.0077   1.0000   0.3396
  -8.500  -0.5029   0.09597   0.08926  -0.0077   1.0000   0.3396
  -8.600  -0.4828   0.09567   0.08884  -0.0074   1.0000   0.3311
  -8.700  -0.4897   0.09741   0.09059  -0.0076   1.0000   0.3278
  -9.000  -0.4893   0.10132   0.09443  -0.0075   1.0000   0.3147
  -9.250  -0.4891   0.10468   0.09772  -0.0073   1.0000   0.3032
  -9.500  -0.4955   0.10856   0.10157  -0.0073   1.0000   0.2932
 -10.000  -0.5147   0.11648   0.10948  -0.0080   1.0000   0.2671
  -9.750  -0.5061   0.11263   0.10566  -0.0077   1.0000   0.2807
  -9.850  -0.4973   0.11301   0.10595  -0.0071   1.0000   0.2748
  -9.950  -0.5250   0.11668   0.10974  -0.0089   1.0000   0.2678
 -10.250  -0.5292   0.12084   0.11385  -0.0088   1.0000   0.2535
 -10.500  -0.5107   0.12209   0.11498  -0.0068   1.0000   0.2433
 -10.750  -0.5127   0.12563   0.11847  -0.0060   1.0000   0.2349
 -11.000  -0.5334   0.13103   0.12390  -0.0070   1.0000   0.2246
 -11.250  -0.5200   0.13246   0.12525  -0.0048   1.0000   0.2163
 -11.500  -0.5355   0.13766   0.13045  -0.0050   1.0000   0.2099
 -11.750  -0.5284   0.13962   0.13235  -0.0032   1.0000   0.2015
 -12.000  -0.5446   0.14502   0.13775  -0.0034   1.0000   0.1958
 -12.250  -0.5359   0.14666   0.13932  -0.0012   1.0000   0.1884
 -12.500  -0.5587   0.15317   0.14587  -0.0020   1.0000   0.1821
 -12.750  -0.5449   0.15376   0.14637   0.0010   1.0000   0.1772
 -13.000  -0.5596   0.15838   0.15101   0.0010   1.0000   0.1701
 -13.250  -0.5616   0.16201   0.15459   0.0026   1.0000   0.1666
 -13.500  -0.5602   0.16405   0.15663   0.0045   1.0000   0.1601
 -13.750  -0.5860   0.17177   0.16440   0.0035   1.0000   0.1540
 -14.000  -0.5730   0.17139   0.16393   0.0068   1.0000   0.1510
 -14.250  -0.5794   0.17452   0.16705   0.0080   1.0000   0.1440
 -14.500  -0.5973   0.18113   0.17368   0.0080   1.0000   0.1396
 -14.750  -0.5905   0.18134   0.17382   0.0111   1.0000   0.1365
 -15.000  -0.5972   0.18440   0.17688   0.0125   1.0000   0.1307
 -15.250  -0.6229   0.19368   0.18620   0.0115   1.0000   0.1261
 -15.500  -0.6143   0.19266   0.18511   0.0149   1.0000   0.1247
 -15.750  -0.6160   0.19436   0.18678   0.0174   1.0000   0.1207
 -16.000  -0.6245   0.19779   0.19021   0.0187   1.0000   0.1165
 -16.250  -0.6536   0.20927   0.20176   0.0173   1.0000   0.1124
 -16.500  -0.6465   0.20764   0.20005   0.0207   1.0000   0.1117
 -16.750  -0.6461   0.20803   0.20041   0.0238   1.0000   0.1093
 -17.000  -0.6524   0.21067   0.20307   0.0258   1.0000   0.1056
 -17.250  -0.6621   0.21438   0.20679   0.0271   1.0000   0.1020
 -17.500  -0.6891   0.22694   0.21941   0.0257   1.0000   0.0987
 -17.750  -0.6841   0.22463   0.21703   0.0293   1.0000   0.0981
 -18.000  -0.6854   0.22469   0.21705   0.0325   1.0000   0.0966
 -18.250  -0.6911   0.22682   0.21917   0.0349   1.0000   0.0936
 -18.500  -0.6993   0.22988   0.22223   0.0367   1.0000   0.0907
 -18.750  -0.7094   0.23373   0.22609   0.0380   1.0000   0.0880
 -19.000  -0.7344   0.24768   0.24010   0.0367   1.0000   0.0852
 -19.250  -0.7321   0.24501   0.23737   0.0403   1.0000   0.0848
 -19.500  -0.7337   0.24414   0.23647   0.0437   1.0000   0.0836
 -19.750  -0.7396   0.24572   0.23803   0.0464   1.0000   0.0813
 -20.000  -0.7475   0.24844   0.24076   0.0485   1.0000   0.0784
