  
       XFOIL         Version 6.99
  
 Calculated polar for: (Dicke 12.28%)                                  
  
 1 1 Reynolds number fixed          Mach number fixed         
  
 xtrf =   1.000 (top)        1.000 (bottom)  
 Mach =   0.000     Re =     0.050 e 6     Ncrit =   9.000
  
   alpha    CL        CD       CDp       CM     Top_Xtr  Bot_Xtr
  ------ -------- --------- --------- -------- -------- --------
   0.000   0.0000   0.02664   0.01676   0.0000   1.0000   1.0000
   0.250  -0.0117   0.02659   0.01671   0.0033   1.0000   1.0000
   0.500  -0.0156   0.02648   0.01660   0.0053   0.9982   1.0000
   0.750   0.0278   0.02677   0.01690  -0.0007   0.9849   1.0000
   1.000   0.0656   0.02704   0.01720  -0.0055   0.9717   1.0000
   1.250   0.0984   0.02730   0.01749  -0.0092   0.9584   1.0000
   1.500   0.1275   0.02758   0.01781  -0.0120   0.9449   1.0000
   1.750   0.1540   0.02790   0.01819  -0.0142   0.9312   1.0000
   2.000   0.1777   0.02826   0.01858  -0.0157   0.9174   1.0000
   2.250   0.2020   0.02869   0.01905  -0.0169   0.9032   1.0000
   2.500   0.2284   0.02919   0.01961  -0.0183   0.8885   1.0000
   2.750   0.2588   0.02975   0.02027  -0.0200   0.8732   1.0000
   3.000   0.2954   0.03034   0.02097  -0.0224   0.8573   1.0000
   3.250   0.3472   0.03084   0.02170  -0.0269   0.8404   1.0000
   3.500   0.3689   0.03144   0.02240  -0.0265   0.8218   1.0000
   3.750   0.4073   0.03185   0.02300  -0.0282   0.8017   1.0000
   4.000   0.4579   0.03186   0.02331  -0.0307   0.7800   1.0000
   4.250   0.4884   0.03202   0.02367  -0.0300   0.7567   1.0000
   4.500   0.5200   0.03197   0.02383  -0.0289   0.7319   1.0000
   4.750   0.5568   0.03140   0.02351  -0.0274   0.7056   1.0000
   5.000   0.5886   0.03061   0.02298  -0.0247   0.6768   1.0000
   5.250   0.6152   0.02971   0.02226  -0.0210   0.6449   1.0000
   5.500   0.6467   0.02797   0.02068  -0.0167   0.6091   1.0000
   5.750   0.6707   0.02631   0.01909  -0.0118   0.5649   1.0000
   6.000   0.6884   0.02480   0.01759  -0.0064   0.5062   1.0000
   6.250   0.6987   0.02394   0.01635  -0.0005   0.4198   1.0000
   6.500   0.7016   0.02499   0.01646   0.0049   0.3179   1.0000
   6.750   0.7067   0.02718   0.01788   0.0087   0.2406   1.0000
   7.000   0.7199   0.02950   0.01973   0.0111   0.1900   1.0000
   7.250   0.7404   0.03185   0.02190   0.0127   0.1580   1.0000
   7.500   0.7644   0.03439   0.02422   0.0136   0.1372   1.0000
   7.750   0.7883   0.03715   0.02706   0.0145   0.1242   1.0000
   8.000   0.8055   0.03991   0.03037   0.0164   0.1165   1.0000
   8.250   0.8229   0.04291   0.03349   0.0176   0.1090   1.0000
   8.500   0.8328   0.04623   0.03737   0.0196   0.1056   1.0000
   8.750   0.8401   0.04998   0.04158   0.0216   0.1043   1.0000
   9.000   0.8426   0.05382   0.04583   0.0235   0.1034   1.0000
   9.250   0.8402   0.05775   0.05014   0.0253   0.1031   1.0000
   9.500   0.8319   0.06183   0.05453   0.0270   0.1030   1.0000
   9.750   0.8147   0.06624   0.05924   0.0284   0.1047   1.0000
  10.000   0.7923   0.07059   0.06377   0.0296   0.1059   1.0000
  10.250   0.7708   0.07504   0.06830   0.0299   0.1076   1.0000
  10.500   0.7559   0.08012   0.07342   0.0289   0.1094   1.0000
  10.750   0.7468   0.08551   0.07882   0.0275   0.1105   1.0000
  10.750   0.7404   0.08579   0.07914   0.0268   0.1117   1.0000
  10.850   0.7447   0.08773   0.08107   0.0269   0.1112   1.0000
  11.250   0.4716   0.12400   0.11743  -0.0059   0.2931   1.0000
  11.000   0.4496   0.11860   0.11197  -0.0060   0.3022   1.0000
  11.100   0.4485   0.12022   0.11359  -0.0064   0.3020   1.0000
  11.200   0.4483   0.12166   0.11502  -0.0067   0.2996   1.0000
  11.500   0.4537   0.12639   0.11977  -0.0072   0.2904   1.0000
  11.750   0.4585   0.12995   0.12337  -0.0076   0.2815   1.0000
  12.000   0.4646   0.13443   0.12786  -0.0084   0.2781   1.0000
  12.250   0.4543   0.13609   0.12949  -0.0093   0.2701   1.0000
  12.500   0.4668   0.14085   0.13427  -0.0097   0.2637   1.0000
  12.750   0.4628   0.14257   0.13600  -0.0104   0.2536   1.0000
  13.000   0.4603   0.14494   0.13837  -0.0112   0.2466   1.0000
  13.250   0.4865   0.15169   0.14515  -0.0110   0.2363   1.0000
  13.500   0.4618   0.14966   0.14311  -0.0126   0.2311   1.0000
  13.750   0.4805   0.15500   0.14849  -0.0127   0.2231   1.0000
  14.000   0.4688   0.15537   0.14884  -0.0143   0.2191   1.0000
  14.250   0.4768   0.15851   0.15201  -0.0148   0.2102   1.0000
  14.500   0.4762   0.16087   0.15436  -0.0160   0.2056   1.0000
  14.750   0.4847   0.16403   0.15754  -0.0165   0.1958   1.0000
  15.000   0.4831   0.16611   0.15961  -0.0180   0.1916   1.0000
  15.250   0.4853   0.16815   0.16167  -0.0191   0.1839   1.0000
  15.500   0.5017   0.17412   0.16768  -0.0194   0.1795   1.0000
  15.750   0.4908   0.17342   0.16694  -0.0217   0.1749   1.0000
  16.000   0.4992   0.17676   0.17033  -0.0224   0.1687   1.0000
  16.250   0.5105   0.18184   0.17542  -0.0231   0.1653   1.0000
  16.500   0.5030   0.18163   0.17520  -0.0254   0.1606   1.0000
  16.750   0.5134   0.18544   0.17904  -0.0259   0.1541   1.0000
  17.000   0.5197   0.18933   0.18293  -0.0271   0.1511   1.0000
  17.250   0.5160   0.18989   0.18349  -0.0292   0.1460   1.0000
  17.500   0.5284   0.19432   0.18795  -0.0296   0.1397   1.0000
  17.750   0.5344   0.19828   0.19190  -0.0309   0.1375   1.0000
  18.000   0.5302   0.19860   0.19223  -0.0332   0.1340   1.0000
  18.250   0.5352   0.20135   0.19500  -0.0346   0.1293   1.0000
  18.500   0.5500   0.20718   0.20086  -0.0348   0.1253   1.0000
  18.750   0.5527   0.21014   0.20381  -0.0364   0.1239   1.0000
  19.000   0.5493   0.21046   0.20414  -0.0389   0.1211   1.0000
  19.250   0.5532   0.21302   0.20675  -0.0405   0.1171   1.0000
  19.500   0.5615   0.21679   0.21055  -0.0414   0.1133   1.0000
  19.750   0.5772   0.22454   0.21830  -0.0416   0.1108   1.0000
  20.000   0.5719   0.22381   0.21758  -0.0443   0.1097   1.0000
   0.000   0.0000   0.02664   0.01676   0.0000   1.0000   1.0000
  -0.250   0.0116   0.02659   0.01671  -0.0033   1.0000   1.0000
  -0.500   0.0155   0.02649   0.01661  -0.0053   1.0000   0.9982
  -1.000  -0.0658   0.02705   0.01720   0.0055   1.0000   0.9717
  -1.250  -0.0985   0.02731   0.01750   0.0092   1.0000   0.9584
  -1.000  -0.0658   0.02705   0.01720   0.0055   1.0000   0.9717
  -1.100  -0.0783   0.02714   0.01731   0.0069   1.0000   0.9665
  -1.200  -0.0901   0.02723   0.01741   0.0082   1.0000   0.9609
  -1.500  -0.1277   0.02759   0.01782   0.0121   1.0000   0.9449
  -1.750  -0.1537   0.02790   0.01819   0.0142   1.0000   0.9313
  -2.000  -0.1780   0.02827   0.01859   0.0157   1.0000   0.9174
  -2.250  -0.2023   0.02869   0.01906   0.0170   1.0000   0.9031
  -2.500  -0.2281   0.02920   0.01962   0.0182   1.0000   0.8885
  -2.750  -0.2581   0.02976   0.02028   0.0199   1.0000   0.8733
  -3.000  -0.2946   0.03035   0.02098   0.0223   1.0000   0.8573
  -3.250  -0.3471   0.03085   0.02169   0.0269   1.0000   0.8404
  -3.500  -0.3688   0.03145   0.02240   0.0265   1.0000   0.8218
  -3.750  -0.4079   0.03184   0.02300   0.0282   1.0000   0.8015
  -4.000  -0.4577   0.03187   0.02330   0.0307   1.0000   0.7800
  -4.250  -0.4886   0.03202   0.02367   0.0300   1.0000   0.7567
  -4.500  -0.5200   0.03197   0.02383   0.0289   1.0000   0.7319
  -4.750  -0.5567   0.03140   0.02352   0.0274   1.0000   0.7054
  -5.000  -0.5885   0.03062   0.02298   0.0247   1.0000   0.6767
  -5.250  -0.6152   0.02971   0.02227   0.0210   1.0000   0.6449
  -5.500  -0.6465   0.02799   0.02070   0.0168   1.0000   0.6091
  -5.750  -0.6707   0.02632   0.01910   0.0118   1.0000   0.5649
  -6.000  -0.6883   0.02480   0.01760   0.0064   1.0000   0.5060
  -6.250  -0.6987   0.02394   0.01635   0.0005   1.0000   0.4199
  -6.500  -0.7016   0.02499   0.01646  -0.0049   1.0000   0.3179
  -6.750  -0.7068   0.02717   0.01789  -0.0086   1.0000   0.2410
  -7.000  -0.7199   0.02949   0.01973  -0.0111   1.0000   0.1901
  -7.250  -0.7403   0.03186   0.02190  -0.0127   1.0000   0.1578
  -7.500  -0.7642   0.03439   0.02423  -0.0137   1.0000   0.1371
  -7.750  -0.7883   0.03716   0.02707  -0.0145   1.0000   0.1242
  -8.000  -0.8055   0.03991   0.03036  -0.0164   1.0000   0.1165
  -8.250  -0.8230   0.04291   0.03348  -0.0176   1.0000   0.1090
  -8.500  -0.8328   0.04623   0.03737  -0.0196   1.0000   0.1056
  -8.750  -0.8401   0.04996   0.04155  -0.0216   1.0000   0.1044
  -9.000  -0.8426   0.05382   0.04584  -0.0235   1.0000   0.1037
  -9.250  -0.8405   0.05769   0.05006  -0.0253   1.0000   0.1028
  -9.500  -0.8319   0.06181   0.05452  -0.0270   1.0000   0.1029
  -9.750  -0.8144   0.06623   0.05923  -0.0285   1.0000   0.1044
 -10.000  -0.7928   0.07055   0.06373  -0.0296   1.0000   0.1061
 -10.250  -0.7737   0.07504   0.06829  -0.0300   1.0000   0.1081
 -10.500  -0.7555   0.08011   0.07341  -0.0289   1.0000   0.1094
 -10.750  -0.7444   0.08559   0.07890  -0.0274   1.0000   0.1105
 -11.250  -0.6304   0.11355   0.10660  -0.0033   1.0000   0.1465
 -11.500  -0.5741   0.13248   0.12536   0.0153   1.0000   0.2830
 -11.750  -0.5803   0.13693   0.12980   0.0160   1.0000   0.2768
 -11.500  -0.5741   0.13249   0.12536   0.0153   1.0000   0.2830
 -11.600  -0.5987   0.13627   0.12921   0.0143   1.0000   0.2791
 -11.700  -0.5866   0.13683   0.12972   0.0155   1.0000   0.2780
 -12.000  -0.6017   0.14229   0.13520   0.0155   1.0000   0.2646
 -12.250  -0.5822   0.14374   0.13655   0.0177   1.0000   0.2578
 -12.500  -0.6107   0.15050   0.14337   0.0171   1.0000   0.2505
 -12.750  -0.5906   0.15129   0.14407   0.0195   1.0000   0.2432
 -13.000  -0.6162   0.15795   0.15078   0.0191   1.0000   0.2361
 -13.250  -0.6000   0.15872   0.15147   0.0215   1.0000   0.2291
 -13.500  -0.6170   0.16414   0.15691   0.0215   1.0000   0.2211
 -13.750  -0.6143   0.16616   0.15889   0.0231   1.0000   0.2118
 -14.000  -0.6224   0.17052   0.16323   0.0240   1.0000   0.2061
 -14.250  -0.6254   0.17326   0.16596   0.0253   1.0000   0.1977
 -14.500  -0.6411   0.17909   0.17182   0.0257   1.0000   0.1932
 -14.750  -0.6341   0.18019   0.17287   0.0283   1.0000   0.1865
 -15.000  -0.6675   0.18938   0.18213   0.0269   1.0000   0.1800
 -15.250  -0.6494   0.18784   0.18050   0.0307   1.0000   0.1771
 -15.500  -0.6556   0.19088   0.18353   0.0321   1.0000   0.1699
 -15.750  -0.6714   0.19684   0.18949   0.0324   1.0000   0.1652
 -16.000  -0.6667   0.19741   0.19001   0.0353   1.0000   0.1591
 -16.250  -0.6961   0.20679   0.19945   0.0339   1.0000   0.1520
 -16.500  -0.6841   0.20517   0.19775   0.0378   1.0000   0.1498
 -16.750  -0.6882   0.20748   0.20004   0.0399   1.0000   0.1440
 -17.000  -0.7095   0.21469   0.20731   0.0393   1.0000   0.1389
 -17.250  -0.7100   0.21665   0.20920   0.0420   1.0000   0.1372
 -17.500  -0.7097   0.21755   0.21006   0.0450   1.0000   0.1328
 -17.750  -0.7191   0.22104   0.21355   0.0463   1.0000   0.1282
 -18.000  -0.7454   0.23187   0.22448   0.0450   1.0000   0.1245
 -18.250  -0.7378   0.22943   0.22196   0.0491   1.0000   0.1233
 -18.500  -0.7400   0.23056   0.22306   0.0520   1.0000   0.1194
 -18.750  -0.7487   0.23379   0.22629   0.0535   1.0000   0.1152
 -19.000  -0.7759   0.24611   0.23868   0.0519   1.0000   0.1109
 -19.250  -0.7708   0.24349   0.23599   0.0558   1.0000   0.1102
 -19.500  -0.7714   0.24339   0.23585   0.0593   1.0000   0.1071
 -19.750  -0.7792   0.24623   0.23870   0.0611   1.0000   0.1026
 -20.000  -0.7922   0.25119   0.24368   0.0617   1.0000   0.0991
