  
       XFOIL         Version 6.99
  
 Calculated polar for: St. CYR 24 (Bartel 35-IIIC)                     
  
 1 1 Reynolds number fixed          Mach number fixed         
  
 xtrf =   1.000 (top)        1.000 (bottom)  
 Mach =   0.000     Re =     0.050 e 6     Ncrit =   9.000
  
   alpha    CL        CD       CDp       CM     Top_Xtr  Bot_Xtr
  ------ -------- --------- --------- -------- -------- --------
   0.000   0.2437   0.05489   0.04446  -0.0782   0.8535   0.2314
   0.250   0.2726   0.05512   0.04456  -0.0790   0.8386   0.2480
   0.500   0.3083   0.05537   0.04474  -0.0806   0.8233   0.2741
   0.750   0.3479   0.05547   0.04498  -0.0825   0.8086   0.3203
   0.750   0.3479   0.05547   0.04498  -0.0825   0.8086   0.3203
   0.850   0.3606   0.05544   0.04509  -0.0830   0.8032   0.3480
   0.950   0.3939   0.05317   0.04470  -0.0857   0.7984   1.0000
   1.250   0.4272   0.05441   0.04524  -0.0858   0.7809   1.0000
   1.500   0.4489   0.05543   0.04601  -0.0855   0.7657   1.0000
   1.750   0.4753   0.05638   0.04676  -0.0856   0.7503   1.0000
   2.000   0.5044   0.05722   0.04742  -0.0859   0.7348   1.0000
   2.250   0.5355   0.05783   0.04788  -0.0862   0.7182   1.0000
   2.500   0.5674   0.05816   0.04809  -0.0863   0.7004   1.0000
   2.750   0.6002   0.05829   0.04811  -0.0863   0.6826   1.0000
   3.000   0.6332   0.05828   0.04800  -0.0862   0.6652   1.0000
   3.250   0.6656   0.05819   0.04785  -0.0859   0.6486   1.0000
   3.500   0.6979   0.05807   0.04767  -0.0856   0.6327   1.0000
   3.750   0.7339   0.05763   0.04719  -0.0853   0.6180   1.0000
   4.000   0.7850   0.05598   0.04551  -0.0859   0.6060   1.0000
   4.250   0.8108   0.05586   0.04538  -0.0847   0.5898   1.0000
   4.500   0.8369   0.05570   0.04522  -0.0836   0.5738   1.0000
   4.500   0.8369   0.05570   0.04522  -0.0836   0.5737   1.0000
   4.600   0.8696   0.05373   0.04325  -0.0841   0.5717   1.0000
   5.000   0.9472   0.04972   0.03923  -0.0833   0.5530   1.0000
   5.250   0.9856   0.04819   0.03770  -0.0824   0.5378   1.0000
   5.500   1.0228   0.04703   0.03655  -0.0817   0.5222   1.0000
   5.750   1.0708   0.04530   0.03481  -0.0820   0.5068   1.0000
   6.000   1.1335   0.04307   0.03252  -0.0841   0.4903   1.0000
   6.250   1.1803   0.04241   0.03181  -0.0854   0.4732   1.0000
   6.500   1.2155   0.04275   0.03209  -0.0859   0.4579   1.0000
   6.750   1.2618   0.04296   0.03223  -0.0880   0.4442   1.0000
   7.000   1.2613   0.04508   0.03444  -0.0848   0.4337   1.0000
   7.250   1.2638   0.04733   0.03674  -0.0822   0.4248   1.0000
   7.500   1.2594   0.04988   0.03937  -0.0791   0.4164   1.0000
   7.750   1.2676   0.05202   0.04156  -0.0773   0.4088   1.0000
   7.750   1.2676   0.05202   0.04156  -0.0773   0.4088   1.0000
   7.950   0.9050   0.09520   0.08495  -0.0726   0.4014   1.0000
   8.250   0.9592   0.09321   0.08300  -0.0710   0.3950   1.0000
   8.500   0.9089   0.10493   0.09475  -0.0738   0.3956   1.0000
   8.500   0.9321   0.10187   0.09168  -0.0727   0.3938   1.0000
   8.600   0.9252   0.10485   0.09468  -0.0734   0.3940   1.0000
   9.000   0.8564   0.12256   0.11250  -0.0792   0.4129   1.0000
   9.000   0.8596   0.12207   0.11199  -0.0788   0.4107   1.0000
   9.100   0.8658   0.12367   0.11361  -0.0792   0.4114   1.0000
  10.750   0.6391   0.15208   0.14353  -0.0773   0.4527   1.0000
  10.850   0.6494   0.15382   0.14529  -0.0776   0.4498   1.0000
  10.950   0.6640   0.15661   0.14808  -0.0781   0.4480   1.0000
  11.250   0.6505   0.15637   0.14792  -0.0781   0.4360   1.0000
  11.500   0.6817   0.16239   0.15397  -0.0790   0.4298   1.0000
  11.750   0.6615   0.16084   0.15249  -0.0791   0.4199   1.0000
  12.000   0.6880   0.16598   0.15767  -0.0798   0.4127   1.0000
  12.250   0.6733   0.16547   0.15723  -0.0803   0.4033   1.0000
  12.500   0.6929   0.16954   0.16137  -0.0808   0.3960   1.0000
  12.750   0.6858   0.17057   0.16245  -0.0816   0.3891   1.0000
  13.000   0.6990   0.17354   0.16548  -0.0821   0.3796   1.0000
  13.250   0.7014   0.17614   0.16813  -0.0830   0.3741   1.0000
  13.500   0.7041   0.17774   0.16980  -0.0837   0.3645   1.0000
  13.750   0.7337   0.18500   0.17711  -0.0842   0.3594   1.0000
  14.000   0.7125   0.18253   0.17471  -0.0853   0.3494   1.0000
  14.250   0.7353   0.18790   0.18016  -0.0857   0.3431   1.0000
  14.500   0.7223   0.18779   0.18010  -0.0871   0.3358   1.0000
  14.750   0.7373   0.19146   0.18384  -0.0875   0.3273   1.0000
  15.000   0.7356   0.19368   0.18612  -0.0887   0.3219   1.0000
  15.250   0.7415   0.19595   0.18847  -0.0895   0.3120   1.0000
  15.500   0.7531   0.20055   0.19312  -0.0903   0.3070   1.0000
  15.750   0.7483   0.20114   0.19379  -0.0916   0.2967   1.0000
  16.000   0.7703   0.20774   0.20045  -0.0919   0.2909   1.0000
  16.250   0.7559   0.20669   0.19946  -0.0937   0.2816   1.0000
  16.250   0.7559   0.20669   0.19946  -0.0937   0.2816   1.0000
  16.350   0.7620   0.20825   0.20105  -0.0938   0.2781   1.0000
  16.450   0.7748   0.21151   0.20435  -0.0936   0.2754   1.0000
  16.750   0.7639   0.21258   0.20548  -0.0959   0.2670   1.0000
  17.000   0.7830   0.21783   0.21080  -0.0960   0.2589   1.0000
  17.250   0.7735   0.21893   0.21195  -0.0980   0.2537   1.0000
  17.500   0.7814   0.22204   0.21513  -0.0988   0.2446   1.0000
  17.750   0.7904   0.22689   0.22002  -0.0997   0.2406   1.0000
  18.000   0.7840   0.22784   0.22103  -0.1016   0.2325   1.0000
  18.250   0.8033   0.23369   0.22697  -0.1016   0.2261   1.0000
  18.500   0.7937   0.23485   0.22815  -0.1039   0.2222   1.0000
  18.750   0.7961   0.23747   0.23084  -0.1052   0.2148   1.0000
  19.000   0.8188   0.24497   0.23841  -0.1049   0.2096   1.0000
  19.250   0.8042   0.24459   0.23806  -0.1077   0.2063   1.0000
  19.500   0.8063   0.24734   0.24087  -0.1091   0.1996   1.0000
  19.750   0.8227   0.25311   0.24672  -0.1092   0.1945   1.0000
  20.000   0.8182   0.25547   0.24910  -0.1113   0.1923   1.0000
   0.000   0.2437   0.05489   0.04446  -0.0782   0.8535   0.2314
  -0.250   0.2117   0.05487   0.04450  -0.0772   0.8686   0.2180
  -0.500   0.1679   0.05463   0.04461  -0.0746   0.8846   0.2057
  -0.750   0.1281   0.05491   0.04496  -0.0721   0.9023   0.1990
  -1.000   0.0599   0.05521   0.04596  -0.0660   0.9366   0.1933
  -1.250  -0.0815   0.05447   0.04620  -0.0468   1.0000   0.1970
  -1.500  -0.1105   0.05599   0.04823  -0.0446   1.0000   0.2141
  -1.500  -0.1105   0.05599   0.04823  -0.0446   1.0000   0.2141
  -1.600  -0.1164   0.05670   0.04888  -0.0448   1.0000   0.2165
  -2.000  -0.3760   0.06512   0.06031   0.0288   1.0000   0.5990
  -2.250  -0.3802   0.06674   0.06189   0.0258   1.0000   0.5624
  -2.500  -0.3803   0.06846   0.06354   0.0213   1.0000   0.5250
  -2.500  -0.3803   0.06846   0.06354   0.0213   1.0000   0.5250
  -2.600  -0.3770   0.06979   0.06480   0.0177   1.0000   0.5201
  -2.700  -0.3783   0.06988   0.06488   0.0170   1.0000   0.4904
  -3.000  -0.3747   0.07279   0.06763   0.0095   1.0000   0.4611
  -3.250  -0.3790   0.07378   0.06860   0.0075   1.0000   0.4112
  -3.500  -0.3816   0.07579   0.07052   0.0038   1.0000   0.3875
  -3.750  -0.3883   0.07779   0.07250   0.0033   1.0000   0.3566
  -4.000  -0.3947   0.07985   0.07452   0.0022   1.0000   0.3351
  -4.250  -0.4018   0.08213   0.07678   0.0019   1.0000   0.3172
  -4.500  -0.4045   0.08477   0.07932  -0.0025   1.0000   0.3096
  -4.750  -0.4137   0.08684   0.08141  -0.0005   1.0000   0.2926
  -5.000  -0.4204   0.08927   0.08385   0.0021   1.0000   0.2781
  -5.250  -0.4238   0.09218   0.08668  -0.0026   1.0000   0.2724
  -5.500  -0.4280   0.09424   0.08877   0.0023   1.0000   0.2589
  -5.750  -0.4326   0.09739   0.09185  -0.0027   1.0000   0.2540
  -6.000  -0.4292   0.09924   0.09371   0.0031   1.0000   0.2432
  -6.250  -0.4350   0.10202   0.09644  -0.0006   1.0000   0.2369
  -6.500  -0.4287   0.10451   0.09888   0.0014   1.0000   0.2315
  -6.750  -0.4220   0.10617   0.10050   0.0019   1.0000   0.2241
  -7.000  -0.4347   0.10980   0.10410  -0.0027   1.0000   0.2182
  -7.250  -0.4227   0.11189   0.10612  -0.0013   1.0000   0.2152
  -7.500  -0.4015   0.11242   0.10658  -0.0008   1.0000   0.2105
  -7.750  -0.3926   0.11397   0.10806  -0.0028   1.0000   0.2055
  -8.000  -0.4309   0.12071   0.11483  -0.0069   1.0000   0.1997
  -8.250  -0.4063   0.12110   0.11511  -0.0062   1.0000   0.1985
  -8.500  -0.3724   0.12014   0.11403  -0.0082   1.0000   0.1968
  -8.750  -0.3534   0.12048   0.11428  -0.0096   1.0000   0.1929
  -9.000  -0.3479   0.12208   0.11583  -0.0112   1.0000   0.1884
  -9.250  -0.3570   0.12528   0.11901  -0.0130   1.0000   0.1843
  -9.500  -0.3746   0.13097   0.12467  -0.0145   1.0000   0.1816
  -9.750  -0.3462   0.12965   0.12323  -0.0155   1.0000   0.1805
 -10.000  -0.3267   0.12931   0.12281  -0.0163   1.0000   0.1772
 -10.250  -0.3202   0.13061   0.12405  -0.0175   1.0000   0.1729
 -10.500  -0.3219   0.13284   0.12624  -0.0191   1.0000   0.1691
 -10.750  -0.3545   0.14096   0.13438  -0.0215   1.0000   0.1652
 -11.000  -0.3265   0.13898   0.13228  -0.0220   1.0000   0.1643
 -11.250  -0.3076   0.13814   0.13135  -0.0226   1.0000   0.1619
 -11.500  -0.2999   0.13899   0.13214  -0.0237   1.0000   0.1580
 -11.750  -0.2985   0.14074   0.13384  -0.0252   1.0000   0.1543
 -12.000  -0.3076   0.14435   0.13743  -0.0272   1.0000   0.1509
 -12.250  -0.3209   0.15003   0.14307  -0.0290   1.0000   0.1491
 -12.500  -0.2998   0.14837   0.14131  -0.0297   1.0000   0.1483
 -12.750  -0.2842   0.14756   0.14041  -0.0306   1.0000   0.1462
 -13.000  -0.2768   0.14825   0.14104  -0.0319   1.0000   0.1434
 -13.250  -0.2731   0.14957   0.14230  -0.0334   1.0000   0.1404
 -13.500  -0.2725   0.15138   0.14405  -0.0352   1.0000   0.1378
 -13.750  -0.2806   0.15521   0.14785  -0.0373   1.0000   0.1352
 -14.000  -0.2914   0.16076   0.15335  -0.0390   1.0000   0.1338
 -14.250  -0.2727   0.15851   0.15098  -0.0396   1.0000   0.1329
 -14.500  -0.2622   0.15783   0.15021  -0.0399   1.0000   0.1307
 -14.750  -0.2600   0.15896   0.15126  -0.0405   1.0000   0.1275
 -15.000  -0.2622   0.16094   0.15318  -0.0411   1.0000   0.1244
 -15.250  -0.2687   0.16392   0.15612  -0.0419   1.0000   0.1217
 -15.500  -0.2910   0.17218   0.16438  -0.0434   1.0000   0.1196
 -15.750  -0.2859   0.17262   0.16471  -0.0429   1.0000   0.1189
 -16.000  -0.2782   0.17140   0.16341  -0.0420   1.0000   0.1179
 -16.250  -0.2770   0.17199   0.16394  -0.0412   1.0000   0.1156
 -16.500  -0.2803   0.17386   0.16577  -0.0408   1.0000   0.1129
 -16.750  -0.2860   0.17626   0.16813  -0.0405   1.0000   0.1104
 -17.000  -0.2949   0.17967   0.17152  -0.0406   1.0000   0.1079
 -17.250  -0.3207   0.19045   0.18228  -0.0418   1.0000   0.1058
 -17.500  -0.3118   0.18774   0.17950  -0.0402   1.0000   0.1053
 -17.750  -0.3092   0.18696   0.17867  -0.0386   1.0000   0.1040
 -18.000  -0.3125   0.18832   0.17998  -0.0375   1.0000   0.1019
 -18.250  -0.3182   0.19051   0.18214  -0.0367   1.0000   0.0997
 -18.500  -0.3252   0.19305   0.18467  -0.0360   1.0000   0.0977
 -18.750  -0.3340   0.19630   0.18789  -0.0355   1.0000   0.0958
 -19.000  -0.3504   0.20358   0.19517  -0.0359   1.0000   0.0940
 -19.250  -0.3548   0.20570   0.19724  -0.0346   1.0000   0.0934
 -19.500  -0.3538   0.20439   0.19588  -0.0326   1.0000   0.0923
 -19.750  -0.3584   0.20564   0.19710  -0.0310   1.0000   0.0905
 -20.000  -0.3652   0.20787   0.19931  -0.0298   1.0000   0.0884
