  
       XFOIL         Version 6.99
  
 Calculated polar for: S4110                                           
  
 1 1 Reynolds number fixed          Mach number fixed         
  
 xtrf =   1.000 (top)        1.000 (bottom)  
 Mach =   0.000     Re =     0.050 e 6     Ncrit =   9.000
  
   alpha    CL        CD       CDp       CM     Top_Xtr  Bot_Xtr
  ------ -------- --------- --------- -------- -------- --------
   0.000   0.0923   0.02066   0.01118  -0.0460   1.0000   1.0000
   0.250   0.1129   0.02119   0.01151  -0.0458   1.0000   1.0000
   0.500   0.1331   0.02177   0.01191  -0.0457   1.0000   1.0000
   0.750   0.1529   0.02239   0.01238  -0.0456   1.0000   1.0000
   1.000   0.1722   0.02308   0.01293  -0.0455   1.0000   1.0000
   1.250   0.1911   0.02382   0.01356  -0.0454   1.0000   1.0000
   1.500   0.2096   0.02461   0.01428  -0.0454   1.0000   1.0000
   1.750   0.2434   0.02578   0.01536  -0.0483   0.9923   1.0000
   2.000   0.2963   0.02723   0.01674  -0.0545   0.9740   1.0000
   2.250   0.3471   0.02850   0.01799  -0.0601   0.9551   1.0000
   2.500   0.3927   0.02952   0.01901  -0.0644   0.9346   1.0000
   2.750   0.4455   0.03050   0.02003  -0.0695   0.9146   1.0000
   3.000   0.4863   0.03122   0.02083  -0.0723   0.8920   1.0000
   3.250   0.5400   0.03174   0.02145  -0.0767   0.8703   1.0000
   3.500   0.5795   0.03215   0.02199  -0.0785   0.8460   1.0000
   3.750   0.6363   0.03202   0.02205  -0.0821   0.8235   1.0000
   4.000   0.6833   0.03172   0.02193  -0.0839   0.7981   1.0000
   4.250   0.7321   0.03102   0.02147  -0.0851   0.7722   1.0000
   4.500   0.7835   0.02974   0.02041  -0.0856   0.7464   1.0000
   4.750   0.8309   0.02827   0.01917  -0.0851   0.7181   1.0000
   5.000   0.8691   0.02705   0.01810  -0.0833   0.6848   1.0000
   5.250   0.9090   0.02564   0.01675  -0.0814   0.6480   1.0000
   5.500   0.9389   0.02495   0.01605  -0.0787   0.6038   1.0000
   5.750   0.9637   0.02482   0.01580  -0.0758   0.5539   1.0000
   6.000   0.9874   0.02509   0.01581  -0.0732   0.5018   1.0000
   6.250   1.0088   0.02587   0.01630  -0.0708   0.4518   1.0000
   6.500   1.0295   0.02696   0.01718  -0.0688   0.4062   1.0000
   6.750   1.0515   0.02823   0.01816  -0.0671   0.3667   1.0000
   7.000   1.0718   0.02973   0.01959  -0.0655   0.3323   1.0000
   7.250   1.0929   0.03130   0.02108  -0.0642   0.3025   1.0000
   7.500   1.1156   0.03301   0.02267  -0.0630   0.2768   1.0000
   7.750   1.1350   0.03481   0.02459  -0.0616   0.2533   1.0000
   8.000   1.1567   0.03680   0.02653  -0.0605   0.2329   1.0000
   8.250   1.1744   0.03903   0.02901  -0.0590   0.2149   1.0000
   8.500   1.1920   0.04141   0.03158  -0.0575   0.1990   1.0000
   8.750   1.2083   0.04402   0.03444  -0.0560   0.1852   1.0000
   9.000   1.2243   0.04690   0.03751  -0.0545   0.1737   1.0000
   9.250   1.2415   0.04963   0.04029  -0.0533   0.1620   1.0000
   9.500   1.2408   0.05363   0.04503  -0.0504   0.1565   1.0000
   9.750   1.2565   0.05674   0.04816  -0.0493   0.1476   1.0000
  10.000   1.2458   0.06118   0.05324  -0.0463   0.1442   1.0000
  10.250   1.2350   0.06575   0.05825  -0.0438   0.1416   1.0000
  10.500   1.2182   0.07076   0.06362  -0.0416   0.1409   1.0000
  10.750   1.1895   0.07610   0.06925  -0.0394   0.1421   1.0000
  11.000   1.1549   0.08172   0.07503  -0.0381   0.1441   1.0000
  11.250   1.1228   0.08830   0.08170  -0.0390   0.1461   1.0000
  11.500   1.0970   0.09568   0.08914  -0.0414   0.1477   1.0000
  11.500   1.0970   0.09568   0.08914  -0.0414   0.1477   1.0000
  11.600   1.0891   0.09876   0.09223  -0.0425   0.1482   1.0000
  11.700   1.0826   0.10186   0.09534  -0.0437   0.1486   1.0000
  12.250   0.8827   0.15651   0.14929  -0.0921   0.3136   1.0000
  12.000   0.9037   0.15428   0.14714  -0.0899   0.3219   1.0000
  12.100   0.8911   0.15511   0.14792  -0.0911   0.3207   1.0000
  12.200   0.8817   0.15584   0.14861  -0.0920   0.3166   1.0000
  12.500   0.8880   0.16067   0.15348  -0.0928   0.3024   1.0000
  12.750   0.9167   0.16731   0.16025  -0.0921   0.2926   1.0000
  13.000   0.8957   0.16872   0.16159  -0.0949   0.2850   1.0000
  13.250   0.9094   0.17393   0.16688  -0.0953   0.2764   1.0000
  13.500   0.9296   0.17967   0.17270  -0.0949   0.2633   1.0000
  13.750   0.9114   0.18056   0.17352  -0.0981   0.2562   1.0000
  14.000   0.9365   0.18773   0.18079  -0.0975   0.2485   1.0000
  14.250   0.9222   0.18849   0.18150  -0.1007   0.2411   1.0000
  14.500   0.9367   0.19391   0.18696  -0.1011   0.2329   1.0000
  14.750   0.9406   0.19682   0.18989  -0.1025   0.2225   1.0000
  15.000   0.9469   0.20147   0.19455  -0.1041   0.2181   1.0000
  15.250   0.9484   0.20404   0.19712  -0.1061   0.2099   1.0000
  15.500   0.9609   0.20953   0.20264  -0.1069   0.2041   1.0000
  15.750   0.9615   0.21156   0.20467  -0.1092   0.1954   1.0000
  16.000   0.9762   0.21774   0.21091  -0.1096   0.1902   1.0000
  16.250   0.9726   0.21886   0.21200  -0.1130   0.1840   1.0000
  16.500   1.0014   0.22883   0.22208  -0.1112   0.1768   1.0000
  16.750   0.9885   0.22700   0.22016  -0.1162   0.1739   1.0000
  17.000   0.9968   0.23040   0.22359  -0.1176   0.1659   1.0000
  17.250   1.0107   0.23688   0.23010  -0.1182   0.1620   1.0000
  17.500   1.0076   0.23722   0.23040  -0.1221   0.1573   1.0000
  17.750   1.0182   0.24136   0.23458  -0.1233   0.1517   1.0000
  18.000   1.0349   0.24926   0.24252  -0.1233   0.1483   1.0000
  18.250   1.0300   0.24823   0.24143  -0.1279   0.1447   1.0000
  18.500   1.0389   0.25171   0.24494  -0.1294   0.1384   1.0000
  18.750   1.0582   0.26103   0.25435  -0.1287   0.1346   1.0000
  19.000   1.0537   0.25932   0.25257  -0.1335   0.1324   1.0000
  19.250   1.0593   0.26178   0.25504  -0.1362   0.1278   1.0000
  19.500   1.0701   0.26614   0.25944  -0.1373   0.1237   1.0000
  19.750   1.0878   0.27597   0.26931  -0.1368   0.1210   1.0000
  20.000   1.0843   0.27342   0.26670  -0.1418   0.1191   1.0000
   0.000   0.0923   0.02066   0.01118  -0.0460   1.0000   1.0000
  -0.250   0.0713   0.02017   0.01094  -0.0462   1.0000   1.0000
  -0.500   0.0498   0.01973   0.01080  -0.0463   1.0000   1.0000
  -0.750   0.0276   0.01932   0.01075  -0.0464   1.0000   1.0000
  -1.000   0.0042   0.01896   0.01089  -0.0464   1.0000   1.0000
  -1.250  -0.0064   0.02018   0.01161  -0.0508   1.0000   0.5977
  -1.500  -0.0290   0.02219   0.01206  -0.0527   1.0000   0.3575
  -1.750  -0.0547   0.02314   0.01275  -0.0530   1.0000   0.2961
  -2.000  -0.0796   0.02400   0.01362  -0.0536   1.0000   0.2581
  -2.250  -0.1033   0.02501   0.01461  -0.0543   1.0000   0.2322
  -2.500  -0.1289   0.02619   0.01603  -0.0547   1.0000   0.2104
  -2.750  -0.1533   0.02757   0.01744  -0.0550   1.0000   0.1897
  -3.000  -0.1805   0.02933   0.01955  -0.0550   1.0000   0.1718
  -3.250  -0.2065   0.03139   0.02187  -0.0549   1.0000   0.1578
  -3.500  -0.2361   0.03406   0.02523  -0.0540   1.0000   0.1490
  -3.750  -0.2612   0.03693   0.02843  -0.0534   1.0000   0.1422
  -4.000  -0.2877   0.04067   0.03262  -0.0521   1.0000   0.1432
  -4.250  -0.3193   0.04638   0.03911  -0.0481   1.0000   0.1574
  -4.750  -0.4077   0.07065   0.06502   0.0005   1.0000   0.4011
  -5.000  -0.4006   0.07207   0.06638  -0.0018   1.0000   0.3731
  -4.750  -0.4077   0.07064   0.06502   0.0005   1.0000   0.4011
  -4.850  -0.3996   0.07067   0.06500   0.0006   1.0000   0.3889
  -4.950  -0.3954   0.07138   0.06567  -0.0002   1.0000   0.3788
  -5.250  -0.3944   0.07410   0.06830  -0.0044   1.0000   0.3494
  -5.500  -0.3954   0.07642   0.07055  -0.0074   1.0000   0.3290
  -6.000  -0.3895   0.08100   0.07493  -0.0113   1.0000   0.2994
  -6.250  -0.3844   0.08324   0.07705  -0.0128   1.0000   0.2871
  -6.500  -0.3861   0.08609   0.07981  -0.0146   1.0000   0.2762
  -6.250  -0.3844   0.08324   0.07705  -0.0128   1.0000   0.2871
  -6.350  -0.3969   0.08521   0.07905  -0.0148   1.0000   0.2810
  -6.450  -0.3947   0.08637   0.08015  -0.0151   1.0000   0.2782
  -6.750  -0.4006   0.09015   0.08385  -0.0174   1.0000   0.2639
  -7.000  -0.3746   0.09010   0.08358  -0.0178   1.0000   0.2556
  -7.250  -0.3789   0.09333   0.08673  -0.0192   1.0000   0.2468
  -7.500  -0.3986   0.09804   0.09144  -0.0209   1.0000   0.2339
  -7.750  -0.3708   0.09755   0.09072  -0.0209   1.0000   0.2286
  -8.000  -0.3860   0.10193   0.09508  -0.0224   1.0000   0.2180
  -8.250  -0.3740   0.10280   0.09581  -0.0219   1.0000   0.2097
  -8.500  -0.3828   0.10667   0.09966  -0.0226   1.0000   0.2021
  -8.750  -0.3796   0.10843   0.10132  -0.0221   1.0000   0.1939
  -9.000  -0.3936   0.11320   0.10608  -0.0230   1.0000   0.1880
  -9.250  -0.3838   0.11408   0.10684  -0.0214   1.0000   0.1816
  -9.500  -0.4145   0.12159   0.11441  -0.0239   1.0000   0.1740
  -9.750  -0.3956   0.12092   0.11358  -0.0210   1.0000   0.1715
 -10.000  -0.3956   0.12312   0.11572  -0.0200   1.0000   0.1648
 -10.250  -0.4248   0.13099   0.12364  -0.0222   1.0000   0.1590
 -10.500  -0.4096   0.13042   0.12294  -0.0193   1.0000   0.1572
 -10.750  -0.4077   0.13221   0.12468  -0.0179   1.0000   0.1517
 -11.000  -0.4210   0.13656   0.12905  -0.0182   1.0000   0.1462
 -11.250  -0.4327   0.14186   0.13432  -0.0181   1.0000   0.1436
 -11.500  -0.4239   0.14199   0.13436  -0.0156   1.0000   0.1406
 -11.750  -0.4277   0.14459   0.13693  -0.0146   1.0000   0.1356
 -12.000  -0.4596   0.15442   0.14682  -0.0169   1.0000   0.1294
 -12.250  -0.4489   0.15374   0.14605  -0.0141   1.0000   0.1285
 -12.500  -0.4444   0.15425   0.14650  -0.0118   1.0000   0.1252
 -12.750  -0.4497   0.15704   0.14926  -0.0107   1.0000   0.1206
 -13.000  -0.4666   0.16289   0.15513  -0.0112   1.0000   0.1159
 -13.250  -0.4778   0.16852   0.16073  -0.0106   1.0000   0.1143
 -13.500  -0.4724   0.16821   0.16037  -0.0081   1.0000   0.1131
 -13.750  -0.4741   0.16980   0.16192  -0.0061   1.0000   0.1101
 -14.000  -0.4803   0.17268   0.16478  -0.0049   1.0000   0.1067
 -14.250  -0.4897   0.17646   0.16858  -0.0042   1.0000   0.1034
 -14.500  -0.5194   0.18876   0.18092  -0.0057   1.0000   0.1002
 -14.750  -0.5137   0.18756   0.17966  -0.0031   1.0000   0.0998
 -15.000  -0.5118   0.18719   0.17924  -0.0005   1.0000   0.0987
 -15.250  -0.5153   0.18868   0.18071   0.0016   1.0000   0.0964
 -15.500  -0.5219   0.19137   0.18338   0.0032   1.0000   0.0936
 -15.750  -0.5300   0.19453   0.18653   0.0045   1.0000   0.0910
 -16.000  -0.5405   0.19873   0.19074   0.0052   1.0000   0.0884
 -16.250  -0.5664   0.21182   0.20388   0.0042   1.0000   0.0860
 -16.500  -0.5627   0.20967   0.20168   0.0070   1.0000   0.0856
 -16.750  -0.5632   0.20883   0.20080   0.0098   1.0000   0.0846
 -17.000  -0.5683   0.21019   0.20214   0.0121   1.0000   0.0825
 -17.250  -0.5757   0.21278   0.20472   0.0139   1.0000   0.0798
 -17.500  -0.5841   0.21582   0.20775   0.0154   1.0000   0.0775
 -17.750  -0.5934   0.21940   0.21133   0.0166   1.0000   0.0754
 -18.000  -0.6051   0.22465   0.21660   0.0173   1.0000   0.0736
 -18.250  -0.6254   0.23733   0.22930   0.0170   1.0000   0.0723
 -18.500  -0.6259   0.23557   0.22749   0.0198   1.0000   0.0720
 -18.750  -0.6288   0.23470   0.22659   0.0226   1.0000   0.0715
 -19.000  -0.6341   0.23525   0.22712   0.0252   1.0000   0.0705
 -19.250  -0.6413   0.23720   0.22906   0.0274   1.0000   0.0689
 -19.500  -0.6493   0.23981   0.23169   0.0293   1.0000   0.0672
 -19.750  -0.6577   0.24267   0.23456   0.0312   1.0000   0.0656
 -20.000  -0.6663   0.24567   0.23756   0.0329   1.0000   0.0641
