  
       XFOIL         Version 6.99
  
 Calculated polar for: S4110                                           
  
 1 1 Reynolds number fixed          Mach number fixed         
  
 xtrf =   1.000 (top)        1.000 (bottom)  
 Mach =   0.000     Re =     0.050 e 6     Ncrit =   9.000
  
   alpha    CL        CD       CDp       CM     Top_Xtr  Bot_Xtr
  ------ -------- --------- --------- -------- -------- --------
   0.000   0.0923   0.02066   0.01118  -0.0460   1.0000   1.0000
   0.250   0.1129   0.02119   0.01151  -0.0458   1.0000   1.0000
   0.500   0.1331   0.02177   0.01191  -0.0457   1.0000   1.0000
   0.750   0.1529   0.02239   0.01238  -0.0456   1.0000   1.0000
   1.000   0.1722   0.02308   0.01293  -0.0455   1.0000   1.0000
   1.250   0.1911   0.02382   0.01356  -0.0454   1.0000   1.0000
   1.500   0.2096   0.02461   0.01428  -0.0454   1.0000   1.0000
   1.750   0.2434   0.02578   0.01536  -0.0483   0.9923   1.0000
   2.000   0.2963   0.02723   0.01674  -0.0545   0.9740   1.0000
   2.250   0.3471   0.02850   0.01799  -0.0601   0.9551   1.0000
   2.500   0.3927   0.02952   0.01901  -0.0644   0.9346   1.0000
   2.750   0.4455   0.03050   0.02003  -0.0695   0.9146   1.0000
   3.000   0.4863   0.03122   0.02083  -0.0723   0.8920   1.0000
   3.250   0.5400   0.03174   0.02145  -0.0767   0.8703   1.0000
   3.500   0.5795   0.03215   0.02199  -0.0785   0.8460   1.0000
   3.750   0.6363   0.03202   0.02205  -0.0821   0.8235   1.0000
   4.000   0.6833   0.03172   0.02193  -0.0839   0.7981   1.0000
   4.250   0.7321   0.03102   0.02147  -0.0851   0.7722   1.0000
   4.500   0.7835   0.02974   0.02041  -0.0856   0.7464   1.0000
   4.750   0.8309   0.02827   0.01917  -0.0851   0.7181   1.0000
   5.000   0.8691   0.02705   0.01810  -0.0833   0.6848   1.0000
   5.250   0.9090   0.02564   0.01675  -0.0814   0.6480   1.0000
   5.500   0.9389   0.02495   0.01605  -0.0787   0.6038   1.0000
   5.750   0.9637   0.02482   0.01580  -0.0758   0.5539   1.0000
   6.000   0.9874   0.02509   0.01581  -0.0732   0.5018   1.0000
   6.250   1.0088   0.02587   0.01630  -0.0708   0.4518   1.0000
   6.500   1.0295   0.02696   0.01718  -0.0688   0.4062   1.0000
   6.750   1.0515   0.02823   0.01816  -0.0671   0.3667   1.0000
   7.000   1.0718   0.02973   0.01959  -0.0655   0.3323   1.0000
   7.250   1.0929   0.03130   0.02108  -0.0642   0.3025   1.0000
   7.500   1.1156   0.03301   0.02267  -0.0630   0.2768   1.0000
   7.750   1.1350   0.03481   0.02459  -0.0616   0.2533   1.0000
   8.000   1.1567   0.03680   0.02653  -0.0605   0.2329   1.0000
   8.250   1.1744   0.03903   0.02901  -0.0590   0.2149   1.0000
   8.500   1.1920   0.04141   0.03158  -0.0575   0.1990   1.0000
   8.750   1.2083   0.04402   0.03444  -0.0560   0.1852   1.0000
   9.000   1.2243   0.04690   0.03751  -0.0545   0.1737   1.0000
   9.250   1.2415   0.04963   0.04029  -0.0533   0.1620   1.0000
   9.500   1.2408   0.05363   0.04503  -0.0504   0.1565   1.0000
   9.750   1.2565   0.05674   0.04816  -0.0493   0.1476   1.0000
  10.000   1.2458   0.06118   0.05324  -0.0463   0.1442   1.0000
  10.250   1.2350   0.06575   0.05825  -0.0438   0.1416   1.0000
  10.500   1.2182   0.07076   0.06362  -0.0416   0.1409   1.0000
  10.750   1.1895   0.07610   0.06925  -0.0394   0.1421   1.0000
  11.000   1.1549   0.08172   0.07503  -0.0381   0.1441   1.0000
  11.250   1.1228   0.08830   0.08170  -0.0390   0.1461   1.0000
  11.500   1.0970   0.09568   0.08914  -0.0414   0.1477   1.0000
  11.500   1.0970   0.09568   0.08914  -0.0414   0.1477   1.0000
  11.600   1.0891   0.09876   0.09223  -0.0425   0.1482   1.0000
  11.700   1.0826   0.10186   0.09534  -0.0437   0.1486   1.0000
  12.250   0.7297   0.15229   0.14570  -0.0776   0.3213   1.0000
  12.500   0.7153   0.15318   0.14662  -0.0783   0.3119   1.0000
  12.750   0.7206   0.15711   0.15059  -0.0790   0.3052   1.0000
  13.000   0.7368   0.16199   0.15555  -0.0790   0.2923   1.0000
  13.250   0.7218   0.16228   0.15587  -0.0802   0.2824   1.0000
  13.500   0.7263   0.16605   0.15968  -0.0810   0.2756   1.0000
  13.750   0.7312   0.16914   0.16283  -0.0817   0.2659   1.0000
  14.000   0.7280   0.17179   0.16550  -0.0830   0.2595   1.0000
  14.250   0.7460   0.17735   0.17113  -0.0830   0.2484   1.0000
  14.500   0.7332   0.17765   0.17145  -0.0849   0.2405   1.0000
  14.750   0.7527   0.18415   0.17803  -0.0849   0.2340   1.0000
  15.000   0.7386   0.18408   0.17795  -0.0872   0.2272   1.0000
  15.250   0.7552   0.18993   0.18388  -0.0872   0.2192   1.0000
  15.500   0.7459   0.19052   0.18449  -0.0893   0.2112   1.0000
  15.750   0.7645   0.19722   0.19124  -0.0892   0.2051   1.0000
  16.000   0.7520   0.19720   0.19123  -0.0918   0.1998   1.0000
  16.250   0.7780   0.20557   0.19968  -0.0910   0.1911   1.0000
  16.500   0.7605   0.20420   0.19830  -0.0941   0.1876   1.0000
  16.750   0.7684   0.20796   0.20211  -0.0948   0.1792   1.0000
  17.000   0.7755   0.21286   0.20703  -0.0959   0.1760   1.0000
  17.250   0.7696   0.21404   0.20824  -0.0983   0.1709   1.0000
  17.500   0.7823   0.21913   0.21341  -0.0984   0.1641   1.0000
  17.750   0.7820   0.22230   0.21658  -0.1003   0.1612   1.0000
  18.000   0.7811   0.22445   0.21876  -0.1023   0.1543   1.0000
  18.250   0.8006   0.23222   0.22660  -0.1017   0.1491   1.0000
  18.500   0.7940   0.23332   0.22769  -0.1044   0.1475   1.0000
  18.750   0.7918   0.23523   0.22962  -0.1067   0.1434   1.0000
  19.000   0.7989   0.23929   0.23373  -0.1075   0.1376   1.0000
  19.250   0.8100   0.24574   0.24021  -0.1080   0.1344   1.0000
  19.500   0.8035   0.24642   0.24090  -0.1109   0.1310   1.0000
  19.750   0.8072   0.24984   0.24435  -0.1124   0.1264   1.0000
  20.000   0.8168   0.25484   0.24943  -0.1129   0.1226   1.0000
   0.000   0.0566   0.00638  -0.00192  -0.0412   1.0000   1.0000
  -0.250   0.0378   0.00591  -0.00212  -0.0413   1.0000   1.0000
  -0.500   0.0182   0.00551  -0.00221  -0.0413   1.0000   1.0000
  -0.750  -0.0032   0.00516  -0.00212  -0.0411   1.0000   1.0000
  -1.000  -0.0122   0.00542  -0.00182  -0.0443   1.0000   0.6938
  -1.250  -0.0248   0.00687  -0.00208  -0.0487   1.0000   0.4068
  -1.500  -0.0482   0.00773  -0.00168  -0.0492   1.0000   0.3239
  -1.750  -0.0707   0.00850  -0.00108  -0.0498   1.0000   0.2795
  -2.000  -0.0931   0.00940  -0.00016  -0.0505   1.0000   0.2504
  -2.250  -0.1033   0.02501   0.01461  -0.0543   1.0000   0.2322
  -2.500  -0.1289   0.02619   0.01603  -0.0547   1.0000   0.2104
  -2.750  -0.1533   0.02757   0.01744  -0.0550   1.0000   0.1897
  -3.000  -0.1805   0.02933   0.01955  -0.0550   1.0000   0.1718
  -3.250  -0.2065   0.03139   0.02187  -0.0549   1.0000   0.1578
  -3.500  -0.2361   0.03406   0.02523  -0.0540   1.0000   0.1490
  -3.750  -0.2612   0.03693   0.02843  -0.0534   1.0000   0.1422
  -4.000  -0.2877   0.04067   0.03262  -0.0521   1.0000   0.1432
  -4.250  -0.3193   0.04638   0.03911  -0.0481   1.0000   0.1574
  -4.250  -0.3193   0.04638   0.03911  -0.0481   1.0000   0.1575
  -4.350  -0.3266   0.04782   0.04056  -0.0483   1.0000   0.1596
  -4.750  -0.4077   0.07064   0.06502   0.0005   1.0000   0.4011
  -5.000  -0.4006   0.07207   0.06638  -0.0018   1.0000   0.3731
  -5.250  -0.3944   0.07410   0.06830  -0.0044   1.0000   0.3494
  -5.500  -0.3954   0.07642   0.07055  -0.0074   1.0000   0.3290
  -5.500  -0.3954   0.07642   0.07055  -0.0074   1.0000   0.3290
  -5.600  -0.4049   0.07845   0.07257  -0.0099   1.0000   0.3244
  -5.700  -0.3907   0.07812   0.07215  -0.0088   1.0000   0.3165
  -6.000  -0.3895   0.08100   0.07493  -0.0113   1.0000   0.2994
  -6.250  -0.3844   0.08324   0.07705  -0.0128   1.0000   0.2871
  -6.500  -0.3861   0.08609   0.07981  -0.0146   1.0000   0.2762
  -6.750  -0.4006   0.09015   0.08385  -0.0174   1.0000   0.2639
  -7.000  -0.3746   0.09010   0.08358  -0.0178   1.0000   0.2556
  -7.250  -0.3789   0.09333   0.08673  -0.0192   1.0000   0.2468
  -7.500  -0.3986   0.09804   0.09144  -0.0209   1.0000   0.2339
  -7.750  -0.3708   0.09755   0.09072  -0.0209   1.0000   0.2286
  -8.000  -0.3860   0.10193   0.09508  -0.0224   1.0000   0.2180
  -8.250  -0.3740   0.10280   0.09581  -0.0219   1.0000   0.2097
  -8.500  -0.3828   0.10667   0.09966  -0.0226   1.0000   0.2021
  -8.750  -0.3796   0.10843   0.10132  -0.0221   1.0000   0.1939
  -9.000  -0.3936   0.11320   0.10608  -0.0230   1.0000   0.1880
  -9.250  -0.3838   0.11408   0.10684  -0.0214   1.0000   0.1816
  -9.500  -0.4145   0.12159   0.11441  -0.0239   1.0000   0.1740
  -9.750  -0.3956   0.12092   0.11358  -0.0210   1.0000   0.1715
 -10.000  -0.3956   0.12312   0.11572  -0.0200   1.0000   0.1648
 -10.250  -0.4248   0.13099   0.12364  -0.0222   1.0000   0.1590
 -10.500  -0.4096   0.13041   0.12294  -0.0193   1.0000   0.1572
 -10.750  -0.4077   0.13221   0.12468  -0.0179   1.0000   0.1517
 -11.000  -0.4210   0.13656   0.12905  -0.0182   1.0000   0.1462
 -11.250  -0.4327   0.14186   0.13432  -0.0181   1.0000   0.1436
 -11.500  -0.4239   0.14199   0.13436  -0.0156   1.0000   0.1406
 -11.750  -0.4277   0.14459   0.13693  -0.0146   1.0000   0.1356
 -12.000  -0.4596   0.15442   0.14682  -0.0169   1.0000   0.1294
 -12.250  -0.4489   0.15374   0.14605  -0.0141   1.0000   0.1285
 -12.500  -0.4444   0.15425   0.14650  -0.0118   1.0000   0.1252
 -12.750  -0.4497   0.15704   0.14927  -0.0107   1.0000   0.1206
 -13.000  -0.4666   0.16289   0.15513  -0.0112   1.0000   0.1159
 -13.250  -0.4778   0.16852   0.16073  -0.0106   1.0000   0.1143
 -13.500  -0.4724   0.16821   0.16037  -0.0081   1.0000   0.1131
 -13.750  -0.4741   0.16980   0.16192  -0.0061   1.0000   0.1101
 -14.000  -0.4802   0.17268   0.16478  -0.0049   1.0000   0.1067
 -14.250  -0.4897   0.17646   0.16858  -0.0042   1.0000   0.1034
 -14.500  -0.5194   0.18876   0.18093  -0.0057   1.0000   0.1002
 -14.750  -0.5137   0.18756   0.17966  -0.0031   1.0000   0.0998
 -15.000  -0.5118   0.18719   0.17924  -0.0005   1.0000   0.0987
 -15.250  -0.5153   0.18868   0.18071   0.0016   1.0000   0.0964
 -15.500  -0.5219   0.19137   0.18338   0.0032   1.0000   0.0936
 -15.750  -0.5300   0.19453   0.18653   0.0045   1.0000   0.0910
 -16.000  -0.5405   0.19873   0.19074   0.0052   1.0000   0.0884
 -16.250  -0.5664   0.21182   0.20388   0.0042   1.0000   0.0860
 -16.500  -0.5627   0.20967   0.20168   0.0070   1.0000   0.0856
 -16.750  -0.5632   0.20883   0.20080   0.0098   1.0000   0.0846
 -17.000  -0.5683   0.21019   0.20214   0.0121   1.0000   0.0825
 -17.250  -0.5757   0.21278   0.20472   0.0139   1.0000   0.0798
 -17.500  -0.5841   0.21582   0.20775   0.0154   1.0000   0.0775
 -17.750  -0.5934   0.21939   0.21133   0.0166   1.0000   0.0754
 -18.000  -0.6051   0.22465   0.21660   0.0173   1.0000   0.0736
 -18.250  -0.6254   0.23734   0.22930   0.0170   1.0000   0.0723
 -18.500  -0.6259   0.23557   0.22749   0.0198   1.0000   0.0720
 -18.750  -0.6288   0.23470   0.22659   0.0226   1.0000   0.0715
 -19.000  -0.6341   0.23525   0.22712   0.0252   1.0000   0.0705
 -19.250  -0.6413   0.23720   0.22906   0.0274   1.0000   0.0689
 -19.500  -0.6493   0.23981   0.23169   0.0293   1.0000   0.0672
 -19.750  -0.6577   0.24267   0.23456   0.0312   1.0000   0.0656
 -20.000  -0.6663   0.24567   0.23756   0.0329   1.0000   0.0641
