  
       XFOIL         Version 6.99
  
 Calculated polar for: A18 (smoothed)                                  
  
 1 1 Reynolds number fixed          Mach number fixed         
  
 xtrf =   1.000 (top)        1.000 (bottom)  
 Mach =   0.000     Re =     0.050 e 6     Ncrit =   9.000
  
   alpha    CL        CD       CDp       CM     Top_Xtr  Bot_Xtr
  ------ -------- --------- --------- -------- -------- --------
   0.000   0.2413   0.02162   0.01172  -0.0809   1.0000   1.0000
   0.250   0.2637   0.02227   0.01215  -0.0810   1.0000   1.0000
   0.500   0.2854   0.02298   0.01269  -0.0811   1.0000   1.0000
   0.750   0.3065   0.02376   0.01333  -0.0812   1.0000   1.0000
   1.000   0.3270   0.02460   0.01406  -0.0813   1.0000   1.0000
   1.250   0.3469   0.02551   0.01489  -0.0815   1.0000   1.0000
   1.500   0.3663   0.02649   0.01581  -0.0816   1.0000   1.0000
   1.750   0.3853   0.02754   0.01682  -0.0818   1.0000   1.0000
   2.000   0.4038   0.02866   0.01791  -0.0821   1.0000   1.0000
   2.250   0.4377   0.02986   0.01911  -0.0852   0.9933   1.0000
   2.500   0.4831   0.03102   0.02029  -0.0903   0.9785   1.0000
   2.750   0.5268   0.03212   0.02144  -0.0948   0.9637   1.0000
   3.000   0.5689   0.03316   0.02258  -0.0989   0.9488   1.0000
   3.250   0.6101   0.03414   0.02367  -0.1026   0.9336   1.0000
   3.500   0.6515   0.03504   0.02470  -0.1061   0.9180   1.0000
   3.750   0.6949   0.03580   0.02567  -0.1096   0.9019   1.0000
   4.000   0.7289   0.03650   0.02654  -0.1112   0.8825   1.0000
   4.250   0.7772   0.03657   0.02686  -0.1142   0.8607   1.0000
   4.500   0.8209   0.03633   0.02693  -0.1157   0.8359   1.0000
   4.750   0.8748   0.03530   0.02626  -0.1177   0.8115   1.0000
   5.000   0.9374   0.03317   0.02462  -0.1194   0.7874   1.0000
   5.250   0.9849   0.03117   0.02301  -0.1183   0.7590   1.0000
   5.500   1.0244   0.02906   0.02125  -0.1152   0.7225   1.0000
   5.750   1.0640   0.02614   0.01859  -0.1104   0.6704   1.0000
   6.000   1.0830   0.02473   0.01717  -0.1039   0.5954   1.0000
   6.250   1.0887   0.02460   0.01650  -0.0963   0.4652   1.0000
   6.500   1.0835   0.02722   0.01748  -0.0894   0.2978   1.0000
   6.750   1.0939   0.03089   0.02011  -0.0862   0.2076   1.0000
   7.000   1.1187   0.03398   0.02281  -0.0849   0.1637   1.0000
   7.250   1.1466   0.03682   0.02551  -0.0843   0.1386   1.0000
   7.500   1.1766   0.03996   0.02877  -0.0838   0.1247   1.0000
   7.750   1.2020   0.04306   0.03192  -0.0831   0.1134   1.0000
   8.000   1.2235   0.04649   0.03600  -0.0813   0.1086   1.0000
   8.250   1.2435   0.05014   0.04005  -0.0798   0.1047   1.0000
   8.500   1.2614   0.05433   0.04436  -0.0786   0.1003   1.0000
   8.750   1.2680   0.05822   0.04901  -0.0757   0.0986   1.0000
   9.000   1.2738   0.06279   0.05411  -0.0731   0.0986   1.0000
   9.250   1.2769   0.06771   0.05947  -0.0706   0.0994   1.0000
   9.500   1.2815   0.07311   0.06517  -0.0688   0.1005   1.0000
   9.750   1.2550   0.07757   0.07044  -0.0644   0.1040   1.0000
  10.000   1.2250   0.08299   0.07630  -0.0613   0.1070   1.0000
  10.250   1.1988   0.08797   0.08151  -0.0590   0.1091   1.0000
  10.500   1.1760   0.09324   0.08692  -0.0578   0.1111   1.0000
  10.750   1.0200   0.09083   0.08477  -0.0432   0.1114   1.0000
  11.000   0.9985   0.09721   0.09121  -0.0441   0.1131   1.0000
  11.250   0.9891   0.10330   0.09733  -0.0446   0.1143   1.0000
  11.500   0.8725   0.12480   0.11881  -0.0618   0.1396   1.0000
  11.750   0.8228   0.13787   0.13175  -0.0712   0.1744   1.0000
  12.000   0.7559   0.15095   0.14478  -0.0840   0.2915   1.0000
  12.250   0.7815   0.15753   0.15142  -0.0839   0.2827   1.0000
  12.500   0.7517   0.15691   0.15076  -0.0843   0.2779   1.0000
  12.750   0.7632   0.16133   0.15520  -0.0840   0.2674   1.0000
  13.000   0.7577   0.16311   0.15700  -0.0842   0.2573   1.0000
  13.250   0.7575   0.16652   0.16040  -0.0846   0.2524   1.0000
  13.500   0.7547   0.16870   0.16260  -0.0850   0.2438   1.0000
  13.750   0.7622   0.17319   0.16710  -0.0853   0.2391   1.0000
  14.000   0.7534   0.17432   0.16823  -0.0862   0.2309   1.0000
  14.250   0.7623   0.17882   0.17274  -0.0863   0.2247   1.0000
  14.500   0.7575   0.18031   0.17424  -0.0870   0.2156   1.0000
  14.750   0.7612   0.18398   0.17791  -0.0875   0.2098   1.0000
  15.000   0.7605   0.18613   0.18008  -0.0882   0.2014   1.0000
  15.250   0.7716   0.19141   0.18540  -0.0882   0.1970   1.0000
  15.500   0.7602   0.19177   0.18575  -0.0899   0.1912   1.0000
  15.750   0.7752   0.19708   0.19111  -0.0895   0.1847   1.0000
  16.000   0.7696   0.19906   0.19307  -0.0910   0.1819   1.0000
  16.250   0.7661   0.20075   0.19476  -0.0923   0.1756   1.0000
  16.500   0.7859   0.20800   0.20205  -0.0915   0.1694   1.0000
  16.750   0.7714   0.20715   0.20118  -0.0938   0.1660   1.0000
  17.000   0.7757   0.21018   0.20424  -0.0944   0.1587   1.0000
  17.250   0.7856   0.21562   0.20968  -0.0945   0.1549   1.0000
  17.500   0.7771   0.21601   0.21007  -0.0966   0.1510   1.0000
  17.750   0.7809   0.21912   0.21320  -0.0973   0.1457   1.0000
  18.000   0.8004   0.22741   0.22153  -0.0965   0.1416   1.0000
  18.250   0.7878   0.22633   0.22044  -0.0990   0.1399   1.0000
  18.500   0.7861   0.22829   0.22240  -0.1005   0.1355   1.0000
  18.750   0.7915   0.23184   0.22601  -0.1010   0.1310   1.0000
  19.000   0.8058   0.23917   0.23336  -0.1006   0.1277   1.0000
  19.250   0.7962   0.23862   0.23280  -0.1031   0.1258   1.0000
  19.500   0.7961   0.24090   0.23509  -0.1045   0.1212   1.0000
  19.750   0.8034   0.24501   0.23924  -0.1047   0.1163   1.0000
  20.000   0.8125   0.25114   0.24539  -0.1049   0.1140   1.0000
   0.000   0.2413   0.02162   0.01172  -0.0809   1.0000   1.0000
  -0.250   0.2178   0.02103   0.01145  -0.0806   1.0000   1.0000
  -0.500   0.1909   0.02048   0.01145  -0.0798   1.0000   1.0000
  -0.750   0.1828   0.02176   0.01199  -0.0835   1.0000   0.6096
  -1.000   0.1546   0.02276   0.01240  -0.0836   1.0000   0.4918
  -1.250   0.1263   0.02338   0.01287  -0.0834   1.0000   0.4219
  -1.500   0.0986   0.02396   0.01339  -0.0833   1.0000   0.3703
  -1.750   0.0708   0.02458   0.01403  -0.0831   1.0000   0.3266
  -2.000   0.0434   0.02528   0.01474  -0.0830   1.0000   0.2874
  -2.250   0.0149   0.02624   0.01580  -0.0826   1.0000   0.2564
  -2.500  -0.0146   0.02744   0.01723  -0.0820   1.0000   0.2289
  -2.750  -0.0445   0.02889   0.01897  -0.0812   1.0000   0.2045
  -3.000  -0.0776   0.03108   0.02159  -0.0797   1.0000   0.1898
  -3.250  -0.1091   0.03329   0.02419  -0.0780   1.0000   0.1739
  -3.500  -0.1421   0.03642   0.02774  -0.0759   1.0000   0.1692
  -3.750  -0.1811   0.04087   0.03283  -0.0710   1.0000   0.1643
  -3.750  -0.1811   0.04087   0.03283  -0.0710   1.0000   0.1643
  -3.850  -0.1946   0.04269   0.03479  -0.0695   1.0000   0.1657
  -3.950  -0.2048   0.04422   0.03637  -0.0691   1.0000   0.1678
  -4.500  -0.3545   0.06741   0.06129  -0.0174   1.0000   0.3334
  -4.750  -0.3624   0.07047   0.06430  -0.0196   1.0000   0.3160
  -5.000  -0.3704   0.07360   0.06740  -0.0206   1.0000   0.3006
  -5.250  -0.3779   0.07660   0.07037  -0.0207   1.0000   0.2860
  -5.500  -0.3839   0.07940   0.07312  -0.0200   1.0000   0.2719
  -5.750  -0.3876   0.08201   0.07567  -0.0189   1.0000   0.2586
  -6.000  -0.3891   0.08462   0.07823  -0.0181   1.0000   0.2469
  -6.250  -0.3925   0.08764   0.08117  -0.0188   1.0000   0.2369
  -6.500  -0.4065   0.09250   0.08602  -0.0241   1.0000   0.2259
  -6.750  -0.3944   0.09272   0.08610  -0.0188   1.0000   0.2178
  -7.000  -0.4106   0.09799   0.09137  -0.0225   1.0000   0.2109
  -7.250  -0.3939   0.09798   0.09118  -0.0196   1.0000   0.2051
  -7.500  -0.4205   0.10478   0.09806  -0.0234   1.0000   0.1967
  -7.750  -0.3978   0.10396   0.09701  -0.0213   1.0000   0.1943
  -8.000  -0.3925   0.10556   0.09850  -0.0214   1.0000   0.1877
  -8.250  -0.4149   0.11196   0.10494  -0.0229   1.0000   0.1816
  -8.500  -0.3977   0.11158   0.10439  -0.0214   1.0000   0.1784
  -8.750  -0.4011   0.11423   0.10700  -0.0213   1.0000   0.1715
  -9.000  -0.4143   0.11941   0.11216  -0.0220   1.0000   0.1665
  -9.250  -0.4055   0.11995   0.11259  -0.0201   1.0000   0.1619
  -9.500  -0.4358   0.12846   0.12120  -0.0228   1.0000   0.1529
  -9.750  -0.4219   0.12785   0.12046  -0.0201   1.0000   0.1517
 -10.000  -0.4176   0.12899   0.12152  -0.0183   1.0000   0.1472
 -10.250  -0.4252   0.13241   0.12493  -0.0180   1.0000   0.1420
 -10.500  -0.4462   0.14002   0.13256  -0.0193   1.0000   0.1383
 -10.750  -0.4363   0.13962   0.13206  -0.0166   1.0000   0.1367
 -11.000  -0.4362   0.14142   0.13382  -0.0150   1.0000   0.1325
 -11.250  -0.4434   0.14480   0.13719  -0.0144   1.0000   0.1281
 -11.500  -0.4705   0.15456   0.14700  -0.0163   1.0000   0.1241
 -11.750  -0.4616   0.15387   0.14622  -0.0136   1.0000   0.1233
 -12.000  -0.4586   0.15454   0.14684  -0.0113   1.0000   0.1208
 -12.250  -0.4630   0.15718   0.14945  -0.0101   1.0000   0.1169
 -12.500  -0.4724   0.16111   0.15341  -0.0097   1.0000   0.1128
 -12.750  -0.4915   0.16946   0.16178  -0.0104   1.0000   0.1098
 -13.000  -0.4859   0.16875   0.16100  -0.0077   1.0000   0.1087
 -13.250  -0.4872   0.17007   0.16228  -0.0056   1.0000   0.1055
 -13.500  -0.4936   0.17302   0.16522  -0.0044   1.0000   0.1017
 -13.750  -0.5038   0.17723   0.16944  -0.0040   1.0000   0.0984
 -14.000  -0.5264   0.18785   0.18009  -0.0049   1.0000   0.0960
 -14.250  -0.5226   0.18689   0.17907  -0.0023   1.0000   0.0955
 -14.500  -0.5227   0.18702   0.17916   0.0003   1.0000   0.0941
 -14.750  -0.5276   0.18905   0.18116   0.0022   1.0000   0.0916
 -15.000  -0.5347   0.19197   0.18408   0.0037   1.0000   0.0889
 -15.250  -0.5431   0.19539   0.18750   0.0049   1.0000   0.0863
 -15.500  -0.5542   0.20028   0.19243   0.0054   1.0000   0.0839
 -15.750  -0.5739   0.21132   0.20349   0.0049   1.0000   0.0823
 -16.000  -0.5731   0.21007   0.20219   0.0077   1.0000   0.0819
 -16.250  -0.5754   0.20986   0.20196   0.0104   1.0000   0.0810
 -16.500  -0.5810   0.21137   0.20344   0.0128   1.0000   0.0792
 -16.750  -0.5885   0.21401   0.20607   0.0146   1.0000   0.0768
 -17.000  -0.5969   0.21709   0.20916   0.0162   1.0000   0.0743
 -17.250  -0.6061   0.22075   0.21282   0.0175   1.0000   0.0719
 -17.500  -0.6202   0.22860   0.22071   0.0174   1.0000   0.0697
 -17.750  -0.6316   0.23561   0.22769   0.0185   1.0000   0.0689
 -18.000  -0.6342   0.23428   0.22633   0.0215   1.0000   0.0685
 -18.250  -0.6394   0.23448   0.22651   0.0243   1.0000   0.0677
 -18.500  -0.6467   0.23619   0.22822   0.0267   1.0000   0.0663
 -18.750  -0.6548   0.23879   0.23085   0.0288   1.0000   0.0646
 -19.000  -0.6633   0.24171   0.23377   0.0308   1.0000   0.0629
 -19.250  -0.6720   0.24480   0.23686   0.0326   1.0000   0.0612
 -19.500  -0.6810   0.24810   0.24017   0.0343   1.0000   0.0597
 -19.750  -0.6904   0.25202   0.24410   0.0358   1.0000   0.0583
 -20.000  -0.7018   0.25894   0.25105   0.0364   1.0000   0.0570
