  
       XFOIL         Version 6.99
  
 Calculated polar for: NACA 1408                                       
  
 1 1 Reynolds number fixed          Mach number fixed         
  
 xtrf =   1.000 (top)        1.000 (bottom)  
 Mach =   0.000     Re =     0.050 e 6     Ncrit =   9.000
  
   alpha    CL        CD       CDp       CM     Top_Xtr  Bot_Xtr
  ------ -------- --------- --------- -------- -------- --------
   0.000   0.0222   0.01594   0.00531  -0.0107   1.0000   1.0000
   0.250   0.0419   0.01612   0.00544  -0.0098   1.0000   1.0000
   0.500   0.0617   0.01635   0.00563  -0.0091   1.0000   1.0000
   0.750   0.0814   0.01662   0.00588  -0.0084   1.0000   1.0000
   1.000   0.1011   0.01695   0.00620  -0.0078   1.0000   1.0000
   1.250   0.1205   0.01734   0.00660  -0.0073   1.0000   1.0000
   1.500   0.1395   0.01779   0.00708  -0.0070   1.0000   1.0000
   1.750   0.1582   0.01833   0.00766  -0.0068   1.0000   1.0000
   2.000   0.1764   0.01896   0.00836  -0.0068   1.0000   1.0000
   2.250   0.1940   0.01969   0.00915  -0.0069   1.0000   1.0000
   2.500   0.2110   0.02054   0.01008  -0.0072   1.0000   1.0000
   2.750   0.2599   0.02168   0.01143  -0.0136   0.9854   1.0000
   3.000   0.3376   0.02271   0.01279  -0.0244   0.9537   1.0000
   3.250   0.4086   0.02324   0.01373  -0.0329   0.9176   1.0000
   3.500   0.4835   0.02310   0.01407  -0.0403   0.8786   1.0000
   3.750   0.5426   0.02236   0.01379  -0.0427   0.8355   1.0000
   4.000   0.5830   0.02131   0.01303  -0.0403   0.7853   1.0000
   4.250   0.6080   0.02030   0.01209  -0.0347   0.7249   1.0000
   4.500   0.6237   0.01967   0.01132  -0.0281   0.6458   1.0000
   4.750   0.6369   0.01969   0.01104  -0.0224   0.5407   1.0000
   5.000   0.6411   0.02149   0.01136  -0.0162   0.3291   1.0000
   5.250   0.6580   0.02429   0.01310  -0.0140   0.2186   1.0000
   5.500   0.6845   0.02649   0.01497  -0.0130   0.1863   1.0000
   5.750   0.7111   0.02841   0.01696  -0.0122   0.1651   1.0000
   6.000   0.7383   0.03063   0.01931  -0.0114   0.1525   1.0000
   6.250   0.7650   0.03321   0.02190  -0.0108   0.1440   1.0000
   6.500   0.7883   0.03551   0.02469  -0.0098   0.1350   1.0000
   6.750   0.8121   0.03875   0.02805  -0.0091   0.1303   1.0000
   7.000   0.8313   0.04210   0.03210  -0.0077   0.1282   1.0000
   7.250   0.8469   0.04564   0.03628  -0.0064   0.1248   1.0000
   7.500   0.8598   0.04976   0.04098  -0.0053   0.1239   1.0000
   7.750   0.8687   0.05470   0.04645  -0.0044   0.1265   1.0000
   8.000   0.8781   0.05980   0.05186  -0.0038   0.1292   1.0000
   8.000   0.8781   0.05980   0.05186  -0.0038   0.1292   1.0000
   8.100   0.8826   0.06187   0.05400  -0.0036   0.1300   1.0000
   8.200   0.8877   0.06400   0.05617  -0.0034   0.1306   1.0000
   8.500   0.8698   0.07268   0.06561  -0.0048   0.1434   1.0000
   8.750   0.8202   0.08398   0.07729  -0.0128   0.1667   1.0000
   9.000   0.7158   0.10971   0.10272  -0.0491   0.3485   1.0000
   9.250   0.7227   0.11446   0.10746  -0.0495   0.3428   1.0000
   9.500   0.7363   0.11907   0.11212  -0.0488   0.3297   1.0000
   9.750   0.7459   0.12334   0.11641  -0.0481   0.3158   1.0000
  10.250   0.7250   0.12916   0.12209  -0.0502   0.2949   1.0000
  10.100   0.7480   0.12883   0.12188  -0.0485   0.3015   1.0000
  10.200   0.7272   0.12867   0.12162  -0.0500   0.2976   1.0000
  10.500   0.7491   0.13511   0.12810  -0.0492   0.2866   1.0000
  10.750   0.7355   0.13720   0.13012  -0.0507   0.2759   1.0000
  11.000   0.7343   0.14096   0.13385  -0.0515   0.2675   1.0000
  11.250   0.7491   0.14596   0.13888  -0.0509   0.2570   1.0000
  11.500   0.7667   0.15119   0.14414  -0.0498   0.2438   1.0000
  11.750   0.7444   0.15214   0.14499  -0.0530   0.2368   1.0000
  12.000   0.7621   0.15779   0.15066  -0.0523   0.2287   1.0000
  12.250   0.7537   0.15979   0.15261  -0.0543   0.2200   1.0000
  12.500   0.7674   0.16526   0.15811  -0.0543   0.2142   1.0000
  12.750   0.7616   0.16731   0.16011  -0.0562   0.2060   1.0000
  13.000   0.7763   0.17300   0.16584  -0.0561   0.2000   1.0000
  13.250   0.7700   0.17464   0.16745  -0.0584   0.1924   1.0000
  13.500   0.7846   0.18029   0.17311  -0.0583   0.1857   1.0000
  13.750   0.7800   0.18186   0.17464  -0.0606   0.1783   1.0000
  14.000   0.7985   0.18847   0.18128  -0.0601   0.1721   1.0000
  14.250   0.7902   0.18909   0.18184  -0.0633   0.1668   1.0000
  14.500   0.8053   0.19434   0.18714  -0.0631   0.1602   1.0000
  14.750   0.8097   0.19836   0.19112  -0.0648   0.1574   1.0000
  15.000   0.8079   0.19980   0.19253  -0.0677   0.1519   1.0000
  15.250   0.8228   0.20519   0.19795  -0.0675   0.1462   1.0000
  15.500   0.8293   0.20959   0.20233  -0.0692   0.1436   1.0000
  15.750   0.8275   0.21047   0.20318  -0.0725   0.1389   1.0000
  16.000   0.8406   0.21536   0.20813  -0.0726   0.1325   1.0000
  16.250   0.8493   0.22034   0.21309  -0.0739   0.1298   1.0000
  16.500   0.8484   0.22089   0.21360  -0.0775   0.1256   1.0000
  16.750   0.8576   0.22458   0.21731  -0.0787   0.1203   1.0000
  17.000   0.8806   0.23542   0.22820  -0.0770   0.1168   1.0000
  17.250   0.8749   0.23334   0.22606  -0.0816   0.1156   1.0000
  17.500   0.8778   0.23464   0.22734  -0.0849   0.1120   1.0000
  17.750   0.8859   0.23798   0.23069  -0.0866   0.1079   1.0000
  18.000   0.9002   0.24431   0.23706  -0.0864   0.1043   1.0000
  18.250   0.9108   0.25053   0.24327  -0.0876   0.1029   1.0000
  18.500   0.9105   0.24933   0.24203  -0.0920   0.1012   1.0000
  18.750   0.9163   0.25141   0.24414  -0.0948   0.0977   1.0000
  19.000   0.9249   0.25480   0.24754  -0.0965   0.0940   1.0000
  19.250   0.9413   0.26347   0.25627  -0.0955   0.0903   1.0000
  19.500   0.9478   0.26707   0.25983  -0.0979   0.0893   1.0000
  19.750   0.9496   0.26582   0.25855  -0.1023   0.0878   1.0000
  20.000   0.9561   0.26782   0.26055  -0.1052   0.0848   1.0000
   0.000   0.0222   0.01594   0.00531  -0.0107   1.0000   1.0000
  -0.250   0.0027   0.01579   0.00523  -0.0117   1.0000   1.0000
  -0.500  -0.0165   0.01568   0.00522  -0.0128   1.0000   1.0000
  -0.750  -0.0352   0.01561   0.00525  -0.0141   1.0000   1.0000
  -1.000  -0.0533   0.01556   0.00532  -0.0155   1.0000   1.0000
  -1.250  -0.0706   0.01555   0.00545  -0.0170   1.0000   1.0000
  -1.500  -0.0869   0.01558   0.00566  -0.0186   1.0000   1.0000
  -1.750  -0.1020   0.01565   0.00590  -0.0205   1.0000   1.0000
  -2.000  -0.1160   0.01578   0.00621  -0.0224   1.0000   1.0000
  -2.250  -0.1289   0.01597   0.00660  -0.0244   1.0000   1.0000
  -2.500  -0.1402   0.01627   0.00711  -0.0263   1.0000   1.0000
  -2.750  -0.1494   0.01674   0.00780  -0.0280   1.0000   1.0000
  -3.000  -0.3059   0.01655   0.00876  -0.0075   1.0000   0.7950
  -3.250  -0.3137   0.01759   0.00857  -0.0161   1.0000   0.5375
  -3.500  -0.3263   0.02006   0.00942  -0.0200   1.0000   0.3194
  -3.750  -0.3503   0.02210   0.01084  -0.0212   1.0000   0.2363
  -4.000  -0.3759   0.02371   0.01240  -0.0222   1.0000   0.2006
  -4.250  -0.4018   0.02546   0.01422  -0.0232   1.0000   0.1830
  -4.500  -0.4263   0.02715   0.01600  -0.0241   1.0000   0.1674
  -4.750  -0.4512   0.02927   0.01844  -0.0250   1.0000   0.1585
  -5.000  -0.4756   0.03156   0.02099  -0.0259   1.0000   0.1524
  -5.250  -0.4982   0.03417   0.02404  -0.0267   1.0000   0.1456
  -5.500  -0.5201   0.03725   0.02769  -0.0274   1.0000   0.1427
  -5.750  -0.5402   0.04110   0.03211  -0.0279   1.0000   0.1440
  -6.000  -0.5578   0.04519   0.03671  -0.0280   1.0000   0.1443
  -6.250  -0.5733   0.04968   0.04162  -0.0277   1.0000   0.1457
  -6.750  -0.5352   0.08041   0.07363   0.0207   1.0000   0.4175
  -7.250  -0.5464   0.08705   0.08020   0.0184   1.0000   0.3767
  -7.000  -0.5521   0.08441   0.07766   0.0194   1.0000   0.3985
  -7.200  -0.5574   0.08725   0.08046   0.0182   1.0000   0.3811
  -8.000  -0.5849   0.09914   0.09231   0.0147   1.0000   0.3236
  -8.250  -0.5901   0.10281   0.09594   0.0143   1.0000   0.3091
  -8.000  -0.5849   0.09914   0.09231   0.0147   1.0000   0.3236
  -8.100  -0.5618   0.09851   0.09153   0.0163   1.0000   0.3179
  -8.200  -0.5695   0.10017   0.09323   0.0158   1.0000   0.3119
  -8.500  -0.5939   0.10635   0.09944   0.0139   1.0000   0.2944
  -8.750  -0.5796   0.10799   0.10098   0.0154   1.0000   0.2822
  -8.500  -0.5938   0.10635   0.09944   0.0139   1.0000   0.2944
  -8.600  -0.5760   0.10614   0.09914   0.0157   1.0000   0.2924
  -8.700  -0.5706   0.10679   0.09975   0.0162   1.0000   0.2862
  -9.000  -0.5775   0.11105   0.10398   0.0159   1.0000   0.2696
  -9.250  -0.5784   0.11444   0.10731   0.0164   1.0000   0.2578
  -9.500  -0.5849   0.11835   0.11121   0.0164   1.0000   0.2473
  -9.750  -0.6098   0.12433   0.11724   0.0145   1.0000   0.2361
 -10.000  -0.5886   0.12511   0.11789   0.0177   1.0000   0.2286
 -10.250  -0.6060   0.13054   0.12335   0.0169   1.0000   0.2209
 -10.500  -0.5966   0.13234   0.12508   0.0190   1.0000   0.2125
 -10.750  -0.6093   0.13740   0.13013   0.0187   1.0000   0.2059
 -11.000  -0.6047   0.13957   0.13226   0.0204   1.0000   0.1974
 -11.250  -0.6136   0.14417   0.13687   0.0206   1.0000   0.1910
 -11.500  -0.6137   0.14678   0.13945   0.0218   1.0000   0.1823
 -11.750  -0.6235   0.15167   0.14433   0.0221   1.0000   0.1770
 -12.000  -0.6193   0.15366   0.14628   0.0241   1.0000   0.1704
 -12.250  -0.6466   0.16164   0.15431   0.0222   1.0000   0.1639
 -12.500  -0.6313   0.16150   0.15408   0.0260   1.0000   0.1613
 -12.750  -0.6338   0.16433   0.15690   0.0274   1.0000   0.1551
 -13.000  -0.6610   0.17303   0.16565   0.0256   1.0000   0.1496
 -13.250  -0.6479   0.17251   0.16505   0.0293   1.0000   0.1477
 -13.500  -0.6487   0.17476   0.16727   0.0313   1.0000   0.1423
 -13.750  -0.6783   0.18456   0.17715   0.0291   1.0000   0.1355
 -14.000  -0.6669   0.18362   0.17613   0.0328   1.0000   0.1342
 -14.250  -0.6662   0.18507   0.17754   0.0353   1.0000   0.1294
 -14.500  -0.6780   0.18954   0.18206   0.0356   1.0000   0.1237
 -14.750  -0.6926   0.19645   0.18897   0.0358   1.0000   0.1210
 -15.000  -0.6878   0.19610   0.18857   0.0392   1.0000   0.1189
 -15.250  -0.6923   0.19857   0.19102   0.0413   1.0000   0.1148
 -15.500  -0.7018   0.20244   0.19490   0.0423   1.0000   0.1108
 -15.750  -0.7265   0.21365   0.20616   0.0408   1.0000   0.1074
 -16.000  -0.7210   0.21200   0.20445   0.0445   1.0000   0.1067
 -16.250  -0.7220   0.21254   0.20495   0.0477   1.0000   0.1042
 -16.500  -0.7286   0.21529   0.20770   0.0497   1.0000   0.1007
 -16.750  -0.7376   0.21892   0.21133   0.0510   1.0000   0.0974
 -17.000  -0.7639   0.23263   0.22515   0.0488   1.0000   0.0937
 -17.250  -0.7601   0.23015   0.22261   0.0527   1.0000   0.0931
 -17.500  -0.7610   0.22947   0.22189   0.0563   1.0000   0.0914
 -17.750  -0.7673   0.23166   0.22407   0.0588   1.0000   0.0881
 -18.000  -0.7758   0.23489   0.22731   0.0605   1.0000   0.0849
 -18.250  -0.7864   0.23936   0.23180   0.0614   1.0000   0.0821
 -18.500  -0.8079   0.25312   0.24560   0.0600   1.0000   0.0800
 -18.750  -0.8077   0.25091   0.24335   0.0637   1.0000   0.0796
 -19.000  -0.8105   0.25004   0.24245   0.0673   1.0000   0.0788
 -19.250  -0.8167   0.25139   0.24378   0.0703   1.0000   0.0769
 -19.500  -0.8245   0.25405   0.24645   0.0726   1.0000   0.0746
 -19.750  -0.8329   0.25713   0.24953   0.0746   1.0000   0.0724
 -20.000  -0.8419   0.26057   0.25302   0.0764   1.0000   0.0704
