  
       XFOIL         Version 6.99
  
 Calculated polar for: E180  (8.59%)                                   
  
 1 1 Reynolds number fixed          Mach number fixed         
  
 xtrf =   1.000 (top)        1.000 (bottom)  
 Mach =   0.000     Re =     0.050 e 6     Ncrit =   9.000
  
   alpha    CL        CD       CDp       CM     Top_Xtr  Bot_Xtr
  ------ -------- --------- --------- -------- -------- --------
   0.000   0.0600   0.02166   0.01150  -0.0316   0.9664   1.0000
   0.250   0.1006   0.02244   0.01207  -0.0352   0.9570   1.0000
   0.500   0.1322   0.02313   0.01262  -0.0371   0.9469   1.0000
   0.750   0.1654   0.02389   0.01326  -0.0393   0.9374   1.0000
   1.000   0.2041   0.02472   0.01398  -0.0424   0.9279   1.0000
   1.250   0.2323   0.02547   0.01467  -0.0436   0.9180   1.0000
   1.500   0.2601   0.02627   0.01542  -0.0448   0.9081   1.0000
   1.750   0.2932   0.02714   0.01626  -0.0467   0.8984   1.0000
   2.000   0.3262   0.02801   0.01714  -0.0486   0.8883   1.0000
   2.250   0.3486   0.02887   0.01801  -0.0488   0.8775   1.0000
   2.500   0.3750   0.02979   0.01895  -0.0495   0.8666   1.0000
   2.750   0.4050   0.03072   0.01994  -0.0507   0.8552   1.0000
   3.000   0.4378   0.03166   0.02099  -0.0523   0.8436   1.0000
   3.250   0.4721   0.03257   0.02201  -0.0540   0.8310   1.0000
   3.500   0.5026   0.03349   0.02304  -0.0550   0.8174   1.0000
   3.750   0.5320   0.03439   0.02408  -0.0556   0.8031   1.0000
   4.000   0.5545   0.03534   0.02520  -0.0552   0.7873   1.0000
   4.250   0.5775   0.03628   0.02629  -0.0547   0.7704   1.0000
   4.500   0.6073   0.03703   0.02723  -0.0547   0.7522   1.0000
   4.750   0.6499   0.03723   0.02771  -0.0552   0.7335   1.0000
   5.000   0.6680   0.03805   0.02876  -0.0534   0.7120   1.0000
   5.250   0.7133   0.03737   0.02842  -0.0523   0.6907   1.0000
   5.500   0.7365   0.03745   0.02875  -0.0498   0.6656   1.0000
   5.750   0.7671   0.03662   0.02822  -0.0466   0.6391   1.0000
   6.000   0.8005   0.03491   0.02688  -0.0424   0.6109   1.0000
   6.250   0.8360   0.03212   0.02441  -0.0370   0.5796   1.0000
   6.500   0.8655   0.02911   0.02164  -0.0310   0.5377   1.0000
   6.500   0.8655   0.02911   0.02164  -0.0310   0.5377   1.0000
   6.600   0.8744   0.02805   0.02065  -0.0287   0.5146   1.0000
   6.700   0.8840   0.02670   0.01932  -0.0259   0.4866   1.0000
   7.000   0.8946   0.02524   0.01697  -0.0180   0.3322   1.0000
   7.250   0.8907   0.02834   0.01868  -0.0142   0.2179   1.0000
   7.500   0.8991   0.03163   0.02136  -0.0115   0.1541   1.0000
   7.750   0.9206   0.03438   0.02369  -0.0099   0.1235   1.0000
   8.000   0.9519   0.03748   0.02673  -0.0090   0.1096   1.0000
   8.250   0.9768   0.04053   0.03030  -0.0078   0.1031   1.0000
   8.500   1.0002   0.04399   0.03373  -0.0072   0.0962   1.0000
   8.750   1.0137   0.04723   0.03768  -0.0057   0.0925   1.0000
   9.000   1.0259   0.05115   0.04218  -0.0044   0.0912   1.0000
   9.250   1.0331   0.05547   0.04700  -0.0031   0.0912   1.0000
   9.500   1.0351   0.06002   0.05201  -0.0019   0.0920   1.0000
   9.750   1.0321   0.06468   0.05705  -0.0009   0.0932   1.0000
  10.000   1.0261   0.06949   0.06215  -0.0001   0.0945   1.0000
  10.250   1.0224   0.07449   0.06733   0.0003   0.0958   1.0000
  10.500   1.0079   0.07903   0.07212   0.0006   0.0975   1.0000
  10.750   0.9576   0.08370   0.07700  -0.0010   0.0992   1.0000
  11.000   0.9079   0.09214   0.08546  -0.0075   0.1020   1.0000
  11.250   0.8785   0.10150   0.09479  -0.0140   0.1057   1.0000
  11.500   0.8741   0.10817   0.10144  -0.0164   0.1085   1.0000
  11.750   0.7829   0.14287   0.13576  -0.0484   0.2608   1.0000
  12.000   0.7813   0.14758   0.14045  -0.0503   0.2611   1.0000
  12.250   0.7945   0.15364   0.14658  -0.0509   0.2592   1.0000
  12.500   0.7752   0.15557   0.14842  -0.0537   0.2533   1.0000
  12.750   0.8009   0.16212   0.15503  -0.0529   0.2454   1.0000
  13.000   0.7829   0.16358   0.15641  -0.0558   0.2392   1.0000
  13.250   0.7990   0.16894   0.16181  -0.0557   0.2307   1.0000
  13.500   0.7954   0.17147   0.16431  -0.0574   0.2218   1.0000
  13.750   0.8138   0.17790   0.17078  -0.0575   0.2175   1.0000
  14.000   0.8024   0.17912   0.17194  -0.0603   0.2104   1.0000
  14.250   0.8329   0.18757   0.18050  -0.0590   0.2043   1.0000
  14.500   0.8136   0.18700   0.17981  -0.0630   0.1997   1.0000
  14.750   0.8257   0.19154   0.18438  -0.0635   0.1926   1.0000
  15.000   0.8314   0.19592   0.18874  -0.0650   0.1891   1.0000
  15.250   0.8316   0.19820   0.19101  -0.0672   0.1818   1.0000
  15.500   0.8499   0.20492   0.19776  -0.0670   0.1763   1.0000
  15.750   0.8434   0.20550   0.19828  -0.0704   0.1706   1.0000
  16.000   0.8663   0.21335   0.20624  -0.0693   0.1630   1.0000
  16.250   0.8572   0.21287   0.20569  -0.0734   0.1587   1.0000
  16.500   0.8695   0.21740   0.21026  -0.0740   0.1518   1.0000
  16.750   0.8801   0.22292   0.21577  -0.0751   0.1491   1.0000
  17.000   0.8774   0.22354   0.21635  -0.0786   0.1445   1.0000
  17.250   0.8882   0.22774   0.22058  -0.0795   0.1390   1.0000
  17.500   0.9036   0.23503   0.22789  -0.0797   0.1359   1.0000
  17.750   0.8997   0.23455   0.22735  -0.0839   0.1327   1.0000
  18.000   0.9069   0.23773   0.23054  -0.0857   0.1276   1.0000
  18.250   0.9307   0.24853   0.24141  -0.0840   0.1229   1.0000
  18.500   0.9244   0.24619   0.23900  -0.0887   0.1213   1.0000
  18.750   0.9284   0.24801   0.24080  -0.0916   0.1166   1.0000
  19.000   0.9410   0.25300   0.24583  -0.0921   0.1114   1.0000
  19.250   0.9508   0.25857   0.25139  -0.0934   0.1091   1.0000
  19.500   0.9518   0.25861   0.25139  -0.0973   0.1064   1.0000
  19.750   0.9588   0.26149   0.25428  -0.0994   0.1023   1.0000
  20.000   0.9699   0.26614   0.25896  -0.1003   0.0987   1.0000
   0.000   0.0600   0.02166   0.01150  -0.0316   0.9664   1.0000
  -0.250   0.0206   0.02090   0.01098  -0.0281   0.9760   1.0000
  -0.500  -0.0183   0.02020   0.01054  -0.0247   0.9857   1.0000
  -0.750  -0.0600   0.01949   0.01019  -0.0207   0.9956   1.0000
  -1.000  -0.0886   0.01896   0.00998  -0.0191   1.0000   1.0000
  -1.250  -0.1047   0.01860   0.00993  -0.0199   1.0000   1.0000
  -1.500  -0.1203   0.01827   0.00996  -0.0209   1.0000   1.0000
  -1.750  -0.1351   0.01798   0.01005  -0.0220   1.0000   1.0000
  -2.000  -0.1488   0.01773   0.01028  -0.0233   1.0000   1.0000
  -2.250  -0.1611   0.01751   0.01061  -0.0248   1.0000   1.0000
  -2.500  -0.2378   0.02247   0.01257  -0.0202   1.0000   0.2372
  -2.750  -0.2614   0.02410   0.01391  -0.0209   1.0000   0.1758
  -3.000  -0.2833   0.02567   0.01551  -0.0220   1.0000   0.1444
  -3.250  -0.3034   0.02713   0.01719  -0.0232   1.0000   0.1256
  -3.500  -0.3229   0.02913   0.01934  -0.0244   1.0000   0.1182
  -3.750  -0.3412   0.03092   0.02172  -0.0259   1.0000   0.1121
  -4.000  -0.3558   0.03284   0.02364  -0.0273   1.0000   0.1057
  -4.250  -0.3699   0.03519   0.02639  -0.0290   1.0000   0.1056
  -4.500  -0.3820   0.03794   0.03000  -0.0311   1.0000   0.1105
  -4.750  -0.3909   0.04094   0.03338  -0.0330   1.0000   0.1151
  -5.000  -0.4013   0.04397   0.03653  -0.0348   1.0000   0.1197
  -5.250  -0.4126   0.04934   0.04274  -0.0339   1.0000   0.1424
  -5.250  -0.4126   0.04934   0.04274  -0.0339   1.0000   0.1423
  -5.350  -0.4202   0.05113   0.04434  -0.0347   1.0000   0.1465
  -5.450  -0.4188   0.06650   0.06113   0.0096   1.0000   0.4355
  -5.750  -0.4336   0.07054   0.06509   0.0075   1.0000   0.4039
  -5.750  -0.4336   0.07054   0.06509   0.0075   1.0000   0.4039
  -5.850  -0.4339   0.07164   0.06615   0.0071   1.0000   0.3915
  -5.950  -0.4362   0.07287   0.06734   0.0068   1.0000   0.3822
  -6.250  -0.4457   0.07681   0.07119   0.0058   1.0000   0.3544
  -6.500  -0.4562   0.08022   0.07454   0.0048   1.0000   0.3330
  -6.750  -0.4705   0.08433   0.07860   0.0036   1.0000   0.3154
  -7.000  -0.4619   0.08650   0.08063   0.0047   1.0000   0.2982
  -7.250  -0.4636   0.08945   0.08349   0.0048   1.0000   0.2811
  -7.500  -0.4738   0.09298   0.08698   0.0042   1.0000   0.2626
  -7.750  -0.4997   0.09847   0.09247   0.0019   1.0000   0.2452
  -8.000  -0.4775   0.09928   0.09310   0.0058   1.0000   0.2384
  -8.250  -0.4828   0.10280   0.09656   0.0063   1.0000   0.2263
  -8.500  -0.4990   0.10756   0.10131   0.0056   1.0000   0.2160
  -8.750  -0.4947   0.10971   0.10341   0.0076   1.0000   0.2064
  -9.000  -0.4978   0.11341   0.10704   0.0089   1.0000   0.1996
  -9.250  -0.5157   0.11826   0.11191   0.0081   1.0000   0.1897
  -9.500  -0.5062   0.12029   0.11381   0.0112   1.0000   0.1851
  -9.750  -0.5182   0.12434   0.11787   0.0113   1.0000   0.1766
 -10.000  -0.5186   0.12778   0.12123   0.0132   1.0000   0.1724
 -10.250  -0.5206   0.13060   0.12400   0.0149   1.0000   0.1653
 -10.500  -0.5389   0.13667   0.13007   0.0143   1.0000   0.1601
 -10.750  -0.5293   0.13773   0.13104   0.0177   1.0000   0.1554
 -11.000  -0.5421   0.14214   0.13546   0.0179   1.0000   0.1488
 -11.250  -0.5509   0.14693   0.14022   0.0189   1.0000   0.1458
 -11.500  -0.5457   0.14834   0.14156   0.0219   1.0000   0.1414
 -11.750  -0.5554   0.15230   0.14551   0.0227   1.0000   0.1358
 -12.000  -0.5731   0.15905   0.15226   0.0225   1.0000   0.1323
 -12.250  -0.5656   0.15951   0.15265   0.0260   1.0000   0.1298
 -12.500  -0.5697   0.16230   0.15542   0.0279   1.0000   0.1253
 -12.750  -0.6005   0.17237   0.16558   0.0258   1.0000   0.1189
 -13.000  -0.5920   0.17205   0.16518   0.0295   1.0000   0.1180
 -13.250  -0.5900   0.17307   0.16615   0.0325   1.0000   0.1149
 -13.500  -0.5968   0.17621   0.16928   0.0341   1.0000   0.1103
 -13.750  -0.6258   0.18696   0.18007   0.0324   1.0000   0.1050
 -14.000  -0.6200   0.18639   0.17943   0.0359   1.0000   0.1043
 -14.250  -0.6192   0.18697   0.17998   0.0391   1.0000   0.1019
 -14.500  -0.6254   0.18977   0.18275   0.0411   1.0000   0.0983
 -14.750  -0.6351   0.19355   0.18653   0.0424   1.0000   0.0949
 -15.000  -0.6643   0.20635   0.19939   0.0407   1.0000   0.0914
 -15.250  -0.6608   0.20533   0.19830   0.0441   1.0000   0.0910
 -15.500  -0.6607   0.20514   0.19807   0.0474   1.0000   0.0899
 -15.750  -0.6656   0.20690   0.19981   0.0501   1.0000   0.0876
 -16.000  -0.6734   0.20986   0.20276   0.0521   1.0000   0.0848
 -16.250  -0.6826   0.21337   0.20627   0.0538   1.0000   0.0821
 -16.500  -0.6942   0.21811   0.21106   0.0548   1.0000   0.0797
 -16.750  -0.7157   0.23001   0.22298   0.0542   1.0000   0.0778
 -17.000  -0.7159   0.22877   0.22170   0.0576   1.0000   0.0774
 -17.250  -0.7190   0.22865   0.22155   0.0609   1.0000   0.0766
 -17.500  -0.7251   0.23010   0.22298   0.0637   1.0000   0.0749
 -17.750  -0.7331   0.23280   0.22567   0.0660   1.0000   0.0727
 -18.000  -0.7418   0.23588   0.22875   0.0680   1.0000   0.0707
 -18.250  -0.7512   0.23927   0.23214   0.0699   1.0000   0.0687
 -18.500  -0.7615   0.24347   0.23635   0.0712   1.0000   0.0668
 -18.750  -0.7864   0.26086   0.25378   0.0696   1.0000   0.0646
 -19.000  -0.7883   0.25910   0.25199   0.0729   1.0000   0.0644
 -19.250  -0.7917   0.25789   0.25074   0.0763   1.0000   0.0641
 -19.500  -0.7969   0.25768   0.25051   0.0795   1.0000   0.0635
 -19.750  -0.8040   0.25897   0.25179   0.0824   1.0000   0.0624
 -20.000  -0.8123   0.26131   0.25412   0.0849   1.0000   0.0608
