  
       XFOIL         Version 6.99
  
 Calculated polar for: Bambino 6                                       
  
 1 1 Reynolds number fixed          Mach number fixed         
  
 xtrf =   1.000 (top)        1.000 (bottom)  
 Mach =   0.000     Re =     0.050 e 6     Ncrit =   9.000
  
   alpha    CL        CD       CDp       CM     Top_Xtr  Bot_Xtr
  ------ -------- --------- --------- -------- -------- --------
   0.000   0.0562   0.03419   0.02499  -0.0334   0.9557   1.0000
   0.250   0.0762   0.03475   0.02540  -0.0333   0.9475   1.0000
   0.500   0.1092   0.03557   0.02606  -0.0356   0.9404   1.0000
   0.750   0.1244   0.03615   0.02654  -0.0346   0.9324   1.0000
   1.000   0.1550   0.03697   0.02724  -0.0364   0.9253   1.0000
   1.250   0.1679   0.03761   0.02781  -0.0350   0.9177   1.0000
   1.500   0.1972   0.03846   0.02860  -0.0365   0.9104   1.0000
   1.750   0.2119   0.03913   0.02922  -0.0354   0.9016   1.0000
   2.000   0.2697   0.03952   0.02957  -0.0409   0.8803   1.0000
   2.000   0.2697   0.03952   0.02957  -0.0409   0.8803   1.0000
   2.100   0.3067   0.03926   0.02930  -0.0448   0.8659   1.0000
   2.200   0.3063   0.03948   0.02953  -0.0431   0.8602   1.0000
   2.500   0.3812   0.03923   0.02933  -0.0495   0.8361   1.0000
   2.750   0.4134   0.03932   0.02946  -0.0501   0.8193   1.0000
   3.000   0.4488   0.03932   0.02952  -0.0510   0.8035   1.0000
   3.250   0.5631   0.03581   0.02625  -0.0609   0.7693   1.0000
   3.500   0.6126   0.03493   0.02557  -0.0632   0.7545   1.0000
   3.750   0.6600   0.03379   0.02461  -0.0648   0.7385   1.0000
   4.000   0.7788   0.02630   0.01707  -0.0703   0.6727   1.0000
   4.250   0.8003   0.02509   0.01566  -0.0662   0.6265   1.0000
   4.500   0.8086   0.02476   0.01513  -0.0610   0.5801   1.0000
   4.750   0.8115   0.02481   0.01514  -0.0556   0.5364   1.0000
   5.000   0.8106   0.02504   0.01542  -0.0499   0.4855   1.0000
   5.250   0.8084   0.02539   0.01524  -0.0437   0.3638   1.0000
   5.500   0.7906   0.02722   0.01589  -0.0361   0.2328   1.0000
   5.750   0.7791   0.02898   0.01713  -0.0300   0.1851   1.0000
   6.000   0.7743   0.03022   0.01815  -0.0250   0.1671   1.0000
   6.250   0.7685   0.03129   0.01910  -0.0198   0.1557   1.0000
   6.500   0.7645   0.03226   0.02001  -0.0149   0.1466   1.0000
   6.750   0.7618   0.03324   0.02090  -0.0105   0.1405   1.0000
   7.000   0.7641   0.03408   0.02176  -0.0069   0.1355   1.0000
   7.250   0.7662   0.03506   0.02276  -0.0034   0.1302   1.0000
   7.500   0.7681   0.03611   0.02370  -0.0002   0.1249   1.0000
   7.750   0.7752   0.03695   0.02462   0.0023   0.1195   1.0000
   8.000   0.7831   0.03782   0.02552   0.0047   0.1169   1.0000
   8.250   0.7915   0.03872   0.02645   0.0069   0.1147   1.0000
   8.500   0.8002   0.03970   0.02741   0.0089   0.1123   1.0000
   8.750   0.8103   0.04060   0.02834   0.0107   0.1097   1.0000
   9.000   0.8220   0.04142   0.02933   0.0123   0.1072   1.0000
   9.250   0.8322   0.04233   0.03033   0.0138   0.1041   1.0000
   9.500   0.8411   0.04331   0.03137   0.0153   0.1011   1.0000
   9.750   0.8538   0.04423   0.03235   0.0166   0.1001   1.0000
  10.000   0.8668   0.04514   0.03333   0.0179   0.0993   1.0000
  10.250   0.8797   0.04610   0.03435   0.0191   0.0982   1.0000
  10.500   0.8957   0.04695   0.03528   0.0201   0.0980   1.0000
  10.750   0.9117   0.04782   0.03629   0.0210   0.0976   1.0000
  11.000   0.9271   0.04876   0.03731   0.0219   0.0968   1.0000
  11.250   0.9382   0.04990   0.03865   0.0229   0.0951   1.0000
  11.500   0.9471   0.05116   0.04010   0.0239   0.0931   1.0000
  11.750   0.9630   0.05221   0.04130   0.0247   0.0928   1.0000
  12.000   0.9743   0.05347   0.04272   0.0255   0.0918   1.0000
  12.250   0.9865   0.05477   0.04419   0.0263   0.0911   1.0000
  12.500   0.9965   0.05621   0.04586   0.0270   0.0902   1.0000
  12.750   0.9979   0.05805   0.04782   0.0277   0.0879   1.0000
  13.000   1.0090   0.05961   0.04958   0.0284   0.0875   1.0000
  13.250   1.0137   0.06143   0.05153   0.0289   0.0863   1.0000
  13.500   1.0251   0.06322   0.05357   0.0295   0.0866   1.0000
  13.750   1.0293   0.06522   0.05570   0.0299   0.0856   1.0000
  14.000   1.0351   0.06737   0.05806   0.0302   0.0853   1.0000
  14.250   1.0396   0.06977   0.06069   0.0305   0.0851   1.0000
  14.500   1.0421   0.07252   0.06368   0.0307   0.0850   1.0000
  14.750   1.0409   0.07573   0.06714   0.0307   0.0850   1.0000
  15.000   1.0374   0.07924   0.07087   0.0304   0.0847   1.0000
  15.250   1.0267   0.08373   0.07556   0.0296   0.0845   1.0000
  15.500   1.0045   0.09002   0.08213   0.0279   0.0842   1.0000
  15.750   0.9776   0.09755   0.08986   0.0253   0.0843   1.0000
  16.000   0.9469   0.10642   0.09890   0.0217   0.0846   1.0000
  17.000   0.7909   0.16313   0.15554  -0.0049   0.0932   1.0000
  16.750   0.7943   0.15764   0.15002  -0.0024   0.0940   1.0000
  16.850   0.7923   0.15995   0.15235  -0.0035   0.0935   1.0000
  16.950   0.7927   0.16188   0.15430  -0.0042   0.0940   1.0000
  17.250   0.7905   0.16825   0.16071  -0.0069   0.0937   1.0000
  17.000   0.7909   0.16313   0.15554  -0.0049   0.0932   1.0000
  17.100   0.7912   0.16516   0.15760  -0.0056   0.0938   1.0000
  17.200   0.7910   0.16713   0.15958  -0.0064   0.0938   1.0000
  17.500   0.7874   0.17373   0.16621  -0.0094   0.0919   1.0000
  17.250   0.7905   0.16825   0.16071  -0.0069   0.0937   1.0000
  17.350   0.7904   0.17040   0.16287  -0.0077   0.0941   1.0000
  17.450   0.7886   0.17270   0.16518  -0.0089   0.0932   1.0000
  17.750   0.8059   0.17257   0.16516  -0.0082   0.0841   1.0000
  18.000   0.7939   0.18072   0.17325  -0.0123   0.0819   1.0000
  18.250   0.7894   0.18722   0.17970  -0.0152   0.0804   1.0000
  18.500   0.7874   0.19296   0.18539  -0.0177   0.0786   1.0000
  18.750   0.7870   0.19845   0.19083  -0.0200   0.0782   1.0000
  19.000   0.7875   0.20378   0.19611  -0.0224   0.0793   1.0000
  19.250   0.7911   0.20861   0.20092  -0.0243   0.0815   1.0000
  19.500   0.7985   0.21324   0.20555  -0.0255   0.0834   1.0000
  19.750   0.5707   0.19519   0.18841  -0.0114   0.1394   1.0000
  20.000   0.5666   0.19715   0.19036  -0.0131   0.1387   1.0000
   0.000   0.0562   0.03419   0.02499  -0.0334   0.9557   1.0000
  -0.250   0.0214   0.03342   0.02447  -0.0308   0.9637   1.0000
  -0.500  -0.0080   0.03278   0.02410  -0.0291   0.9721   1.0000
  -0.750  -0.0416   0.03213   0.02380  -0.0267   0.9812   1.0000
  -1.250  -0.3766   0.03406   0.02321   0.0231   0.9858   0.2223
  -1.500  -0.4149   0.03473   0.02400   0.0257   0.9929   0.2095
  -1.750  -0.4551   0.03547   0.02524   0.0282   1.0000   0.2023
  -2.000  -0.4731   0.03650   0.02638   0.0271   1.0000   0.1956
  -2.250  -0.4886   0.03756   0.02780   0.0254   1.0000   0.1882
  -2.500  -0.5042   0.03881   0.02940   0.0237   1.0000   0.1851
  -2.750  -0.5190   0.04039   0.03136   0.0217   1.0000   0.1842
  -3.000  -0.5324   0.04222   0.03363   0.0197   1.0000   0.1855
  -3.250  -0.5442   0.04428   0.03611   0.0175   1.0000   0.1878
  -3.500  -0.5541   0.04634   0.03854   0.0151   1.0000   0.1885
  -3.250  -0.5442   0.04428   0.03611   0.0175   1.0000   0.1878
  -3.350  -0.5484   0.04512   0.03710   0.0166   1.0000   0.1884
  -3.450  -0.5522   0.04592   0.03805   0.0156   1.0000   0.1883
  -3.750  -0.5614   0.04831   0.04085   0.0127   1.0000   0.1867
  -4.000  -0.5695   0.05102   0.04379   0.0104   1.0000   0.1920
  -4.750  -0.3051   0.06524   0.05957   0.0207   1.0000   0.6985
  -5.000  -0.2290   0.06531   0.05929   0.0113   1.0000   0.7458
  -5.500  -0.2399   0.06976   0.06364   0.0080   1.0000   0.7089
  -5.750  -0.3034   0.07339   0.06743   0.0083   1.0000   0.6139
  -6.000  -0.3833   0.07747   0.07175   0.0052   1.0000   0.4976
  -6.250  -0.4005   0.08012   0.07440   0.0010   1.0000   0.4518
  -6.500  -0.3987   0.08225   0.07646  -0.0035   1.0000   0.4203
  -6.750  -0.4062   0.08500   0.07916  -0.0072   1.0000   0.3906
  -7.000  -0.4142   0.08780   0.08192  -0.0110   1.0000   0.3607
  -6.750  -0.4356   0.08618   0.08046  -0.0069   1.0000   0.3768
  -6.850  -0.4135   0.08627   0.08044  -0.0088   1.0000   0.3759
  -6.950  -0.3947   0.08641   0.08047  -0.0103   1.0000   0.3738
  -7.250  -0.3932   0.08941   0.08337  -0.0144   1.0000   0.3432
  -7.500  -0.3864   0.09171   0.08558  -0.0169   1.0000   0.3270
  -7.750  -0.3800   0.09413   0.08790  -0.0191   1.0000   0.3100
  -7.500  -0.3864   0.09171   0.08558  -0.0169   1.0000   0.3271
  -7.600  -0.4074   0.09410   0.08803  -0.0181   1.0000   0.3151
  -7.700  -0.3847   0.09392   0.08773  -0.0188   1.0000   0.3122
  -8.000  -0.3810   0.09723   0.09093  -0.0208   1.0000   0.2972
  -8.250  -0.3919   0.10110   0.09478  -0.0226   1.0000   0.2842
  -8.500  -0.3757   0.10265   0.09620  -0.0234   1.0000   0.2738
  -9.000  -0.3776   0.10924   0.10266  -0.0254   1.0000   0.2527
  -9.500  -0.3667   0.11429   0.10754  -0.0260   1.0000   0.2335
  -9.750  -0.3942   0.12036   0.11366  -0.0281   1.0000   0.2239
 -10.000  -0.3677   0.12051   0.11364  -0.0265   1.0000   0.2192
 -10.250  -0.3945   0.12688   0.12005  -0.0285   1.0000   0.2087
 -10.500  -0.3735   0.12722   0.12027  -0.0268   1.0000   0.2062
 -10.750  -0.3956   0.13318   0.12624  -0.0286   1.0000   0.1935
 -11.000  -0.3742   0.13321   0.12614  -0.0266   1.0000   0.1902
 -11.250  -0.3875   0.13744   0.13038  -0.0276   1.0000   0.1801
 -11.500  -0.3848   0.14047   0.13333  -0.0267   1.0000   0.1771
 -11.750  -0.3779   0.14204   0.13483  -0.0255   1.0000   0.1709
 -12.000  -0.4076   0.15011   0.14295  -0.0276   1.0000   0.1638
 -12.250  -0.3910   0.14981   0.14254  -0.0253   1.0000   0.1622
 -12.000  -0.4076   0.15011   0.14295  -0.0276   1.0000   0.1638
 -12.100  -0.4013   0.15006   0.14284  -0.0268   1.0000   0.1634
 -12.200  -0.3943   0.14985   0.14259  -0.0258   1.0000   0.1628
 -12.500  -0.3864   0.15142   0.14408  -0.0241   1.0000   0.1566
 -12.750  -0.4190   0.16037   0.15310  -0.0264   1.0000   0.1493
 -13.000  -0.4021   0.15949   0.15210  -0.0238   1.0000   0.1480
 -13.250  -0.3970   0.16058   0.15313  -0.0223   1.0000   0.1423
 -13.500  -0.4113   0.16531   0.15788  -0.0229   1.0000   0.1364
 -13.750  -0.4207   0.17042   0.16294  -0.0226   1.0000   0.1342
 -14.000  -0.4118   0.17017   0.16261  -0.0204   1.0000   0.1314
 -14.250  -0.4150   0.17261   0.16502  -0.0194   1.0000   0.1267
 -14.500  -0.4315   0.17835   0.17079  -0.0200   1.0000   0.1219
 -14.750  -0.4373   0.18244   0.17482  -0.0192   1.0000   0.1203
 -15.000  -0.4327   0.18242   0.17474  -0.0170   1.0000   0.1183
 -15.250  -0.4358   0.18455   0.17684  -0.0158   1.0000   0.1140
 -15.500  -0.4481   0.18908   0.18137  -0.0159   1.0000   0.1093
 -15.750  -0.4554   0.19329   0.18555  -0.0150   1.0000   0.1071
 -16.000  -0.4543   0.19378   0.18598  -0.0129   1.0000   0.1048
 -16.250  -0.4596   0.19619   0.18838  -0.0117   1.0000   0.1006
 -16.500  -0.4735   0.20153   0.19373  -0.0120   1.0000   0.0962
 -16.750  -0.4851   0.20730   0.19947  -0.0115   1.0000   0.0950
 -17.000  -0.4822   0.20659   0.19870  -0.0089   1.0000   0.0939
 -17.250  -0.4853   0.20809   0.20016  -0.0070   1.0000   0.0913
 -17.500  -0.4917   0.21073   0.20278  -0.0056   1.0000   0.0883
 -17.750  -0.4997   0.21388   0.20592  -0.0047   1.0000   0.0857
 -18.000  -0.5099   0.21797   0.21002  -0.0041   1.0000   0.0836
 -18.250  -0.5296   0.22862   0.22067  -0.0048   1.0000   0.0818
 -18.500  -0.5275   0.22686   0.21885  -0.0021   1.0000   0.0813
 -18.750  -0.5288   0.22644   0.21841   0.0004   1.0000   0.0802
 -19.000  -0.5340   0.22808   0.22002   0.0024   1.0000   0.0780
 -19.250  -0.5409   0.23060   0.22252   0.0039   1.0000   0.0756
 -19.500  -0.5487   0.23350   0.22541   0.0052   1.0000   0.0730
 -19.750  -0.5583   0.23744   0.22935   0.0059   1.0000   0.0707
